*SPEF "ieee 1481-1999"
*DESIGN "gcd"
*DATE "15:18:40 Friday March 28, 2025"
*VENDOR "The OpenROAD Project"
*PROGRAM "OpenROAD"
*VERSION "v2.0-17941-g7fb347f37"
*DESIGN_FLOW "NAME_SCOPE LOCAL" "PIN_CAP NONE"
*DIVIDER /
*DELIMITER :
*BUS_DELIMITER []
*T_UNIT 1 NS
*C_UNIT 1 PF
*R_UNIT 1 OHM
*L_UNIT 1 HENRY

*NAME_MAP
*1 _000_
*2 _001_
*3 _002_
*4 _003_
*5 _004_
*6 _005_
*7 _006_
*8 _007_
*9 _008_
*10 _009_
*11 _010_
*12 _011_
*13 _012_
*14 _013_
*15 _014_
*16 _015_
*17 _016_
*18 _017_
*19 _018_
*20 _019_
*21 _020_
*22 _021_
*23 _022_
*24 _023_
*25 _024_
*26 _025_
*27 _026_
*28 _027_
*29 _028_
*30 _029_
*31 _030_
*32 _031_
*33 _032_
*34 _033_
*35 _034_
*36 _035_
*37 _036_
*38 _037_
*39 _038_
*40 _039_
*41 _040_
*42 _041_
*43 _042_
*44 _043_
*45 _044_
*46 _045_
*47 _046_
*48 _047_
*49 _048_
*50 _049_
*51 _050_
*52 _051_
*53 _052_
*54 _053_
*55 _054_
*56 _055_
*57 _056_
*58 _057_
*59 _058_
*60 _059_
*61 _060_
*62 _061_
*63 _062_
*64 _063_
*65 _064_
*66 _065_
*67 _066_
*68 _067_
*69 _068_
*70 _069_
*71 _070_
*72 net61
*73 _072_
*74 _073_
*75 _074_
*76 _075_
*77 _076_
*78 _077_
*79 _078_
*80 _079_
*81 _080_
*82 _081_
*83 _082_
*84 _083_
*85 _084_
*86 _085_
*87 _086_
*88 _087_
*89 _088_
*90 _089_
*91 _090_
*92 _091_
*93 _092_
*94 _093_
*95 _094_
*96 _095_
*97 _096_
*98 _097_
*99 _098_
*100 _099_
*101 _100_
*102 _101_
*103 _102_
*104 _103_
*105 _104_
*106 _105_
*107 _106_
*108 _107_
*109 _108_
*110 _109_
*111 _110_
*112 _111_
*113 _112_
*114 _113_
*115 _114_
*116 _115_
*117 _116_
*118 _117_
*119 _118_
*120 _119_
*121 _120_
*122 _121_
*123 _122_
*124 _123_
*125 _124_
*126 _125_
*127 _126_
*128 _127_
*129 _128_
*130 _129_
*131 _130_
*132 _131_
*133 _132_
*134 _133_
*135 _134_
*136 _135_
*137 _136_
*138 _137_
*139 _138_
*140 _139_
*141 _140_
*142 _141_
*143 _142_
*144 _143_
*145 _144_
*146 _145_
*147 _146_
*148 _147_
*149 _148_
*150 _149_
*151 _150_
*152 _151_
*153 _152_
*154 _153_
*155 _154_
*156 _155_
*157 _156_
*158 _157_
*159 _158_
*160 _159_
*161 _160_
*162 _161_
*163 _162_
*164 _163_
*165 _164_
*166 _165_
*167 _166_
*168 _167_
*169 _168_
*170 _169_
*171 _170_
*172 _171_
*173 _172_
*174 _173_
*175 _174_
*176 _175_
*177 _176_
*178 _177_
*179 _178_
*180 _179_
*181 _180_
*182 _181_
*183 _182_
*184 _183_
*185 _184_
*186 _185_
*187 _186_
*188 _187_
*189 _188_
*190 _189_
*191 _190_
*192 _191_
*193 _192_
*194 _193_
*195 _194_
*196 _195_
*197 _196_
*198 _197_
*199 _198_
*200 _199_
*201 _200_
*202 _201_
*203 _202_
*204 _203_
*205 _204_
*206 _205_
*207 _206_
*208 _207_
*209 _208_
*210 _209_
*211 _210_
*212 _211_
*213 _212_
*214 _213_
*215 _214_
*216 _215_
*217 _216_
*218 _217_
*219 _218_
*220 _219_
*221 _220_
*222 _221_
*223 _222_
*224 _223_
*225 _224_
*226 _225_
*227 _226_
*228 _227_
*229 _228_
*230 _229_
*231 _230_
*232 _231_
*233 _232_
*234 _233_
*235 _234_
*236 _235_
*237 _236_
*238 _237_
*239 _238_
*240 _239_
*241 _240_
*242 _241_
*243 _242_
*244 _243_
*245 _244_
*246 _245_
*247 _246_
*248 _247_
*249 _248_
*250 _249_
*251 _250_
*252 _251_
*253 _252_
*254 _253_
*255 _254_
*256 _255_
*257 _256_
*258 _257_
*259 _258_
*260 _259_
*261 _260_
*262 _261_
*263 _262_
*264 _263_
*265 _264_
*266 _265_
*267 _266_
*268 _267_
*269 _268_
*270 _269_
*271 _270_
*272 _271_
*273 _272_
*274 _273_
*275 _274_
*276 _275_
*277 _276_
*278 _277_
*279 _278_
*280 _279_
*281 _280_
*282 _281_
*283 _282_
*284 _283_
*285 _284_
*286 _285_
*287 _286_
*288 _287_
*289 _288_
*290 _289_
*291 _290_
*292 _291_
*293 _292_
*294 _293_
*295 _294_
*296 _295_
*297 _296_
*298 _297_
*299 _298_
*300 _299_
*301 _300_
*302 _301_
*303 _302_
*304 _303_
*305 _304_
*306 _305_
*307 _306_
*308 _307_
*309 _308_
*310 _309_
*311 _310_
*312 _311_
*313 _312_
*314 _313_
*315 _314_
*316 _315_
*317 _316_
*318 _317_
*319 _318_
*320 _319_
*321 _320_
*322 _321_
*323 _322_
*324 _323_
*325 _324_
*326 _325_
*327 _326_
*328 _327_
*329 _328_
*330 _329_
*331 _330_
*332 _331_
*333 _332_
*334 _333_
*335 _334_
*336 _335_
*337 _336_
*338 _337_
*339 _338_
*340 _339_
*341 _340_
*342 _341_
*343 _342_
*344 _343_
*345 _344_
*346 _345_
*347 _346_
*348 _347_
*349 _348_
*350 _349_
*351 _350_
*352 _351_
*353 _352_
*354 _353_
*355 _354_
*356 _355_
*357 _356_
*358 _357_
*359 _358_
*360 _359_
*361 _360_
*362 _361_
*363 _362_
*364 _363_
*365 _364_
*366 _365_
*367 _366_
*368 _367_
*369 _368_
*370 _369_
*371 _370_
*372 _371_
*373 _372_
*374 _373_
*375 _374_
*376 _375_
*377 _376_
*378 _377_
*379 _378_
*380 _379_
*381 _380_
*382 _381_
*383 _382_
*384 _383_
*385 _384_
*386 _385_
*387 _386_
*388 _387_
*389 _388_
*390 _389_
*391 _390_
*392 _391_
*393 _392_
*394 _393_
*395 _394_
*396 _395_
*397 _396_
*398 _397_
*399 _398_
*400 _399_
*401 _400_
*402 _401_
*403 _402_
*404 _403_
*405 _404_
*406 _405_
*407 _406_
*408 _407_
*409 _408_
*410 _409_
*411 _410_
*412 _411_
*413 _412_
*414 _413_
*415 _414_
*416 _415_
*417 _416_
*418 _417_
*419 _418_
*420 _419_
*421 _420_
*422 _421_
*423 _422_
*424 _423_
*425 _424_
*426 _425_
*427 _426_
*428 _427_
*429 _428_
*430 _429_
*431 _430_
*432 _431_
*433 _432_
*434 _433_
*435 _434_
*436 _435_
*437 _436_
*438 _437_
*439 _438_
*440 _439_
*441 _440_
*442 _441_
*443 _442_
*444 _443_
*445 _444_
*446 _445_
*447 _446_
*448 _447_
*449 _448_
*450 _449_
*451 _450_
*452 _451_
*453 _452_
*454 _453_
*455 _454_
*456 _455_
*457 _456_
*458 _457_
*459 _458_
*460 _459_
*461 _460_
*462 _461_
*463 _462_
*464 _463_
*465 _464_
*466 _465_
*467 _466_
*468 _467_
*469 _468_
*470 _469_
*471 _470_
*472 _471_
*473 _472_
*474 _473_
*475 _474_
*476 _475_
*477 _476_
*478 _477_
*479 _478_
*480 _479_
*481 _480_
*482 _481_
*483 _482_
*484 _483_
*485 _484_
*486 _485_
*487 clk
*488 ctrl\.state\.out\[1\]
*489 ctrl\.state\.out\[2\]
*490 dpath\.a_lt_b\$in0\[0\]
*491 dpath\.a_lt_b\$in0\[10\]
*492 dpath\.a_lt_b\$in0\[11\]
*493 dpath\.a_lt_b\$in0\[12\]
*494 dpath\.a_lt_b\$in0\[13\]
*495 dpath\.a_lt_b\$in0\[14\]
*496 dpath\.a_lt_b\$in0\[15\]
*497 dpath\.a_lt_b\$in0\[1\]
*498 dpath\.a_lt_b\$in0\[2\]
*499 dpath\.a_lt_b\$in0\[3\]
*500 dpath\.a_lt_b\$in0\[4\]
*501 dpath\.a_lt_b\$in0\[5\]
*502 dpath\.a_lt_b\$in0\[6\]
*503 dpath\.a_lt_b\$in0\[7\]
*504 dpath\.a_lt_b\$in0\[8\]
*505 dpath\.a_lt_b\$in0\[9\]
*506 dpath\.a_lt_b\$in1\[0\]
*507 dpath\.a_lt_b\$in1\[10\]
*508 dpath\.a_lt_b\$in1\[11\]
*509 dpath\.a_lt_b\$in1\[12\]
*510 dpath\.a_lt_b\$in1\[13\]
*511 dpath\.a_lt_b\$in1\[14\]
*512 dpath\.a_lt_b\$in1\[15\]
*513 dpath\.a_lt_b\$in1\[1\]
*514 dpath\.a_lt_b\$in1\[2\]
*515 dpath\.a_lt_b\$in1\[3\]
*516 dpath\.a_lt_b\$in1\[4\]
*517 dpath\.a_lt_b\$in1\[5\]
*518 dpath\.a_lt_b\$in1\[6\]
*519 dpath\.a_lt_b\$in1\[7\]
*520 dpath\.a_lt_b\$in1\[8\]
*521 dpath\.a_lt_b\$in1\[9\]
*522 req_msg[0]
*523 req_msg[10]
*524 req_msg[11]
*525 req_msg[12]
*526 req_msg[13]
*527 req_msg[14]
*528 req_msg[15]
*529 req_msg[16]
*530 req_msg[17]
*531 req_msg[18]
*532 req_msg[19]
*533 req_msg[1]
*534 req_msg[20]
*535 req_msg[21]
*536 req_msg[22]
*537 req_msg[23]
*538 req_msg[24]
*539 req_msg[25]
*540 req_msg[26]
*541 req_msg[27]
*542 req_msg[28]
*543 req_msg[29]
*544 req_msg[2]
*545 req_msg[30]
*546 req_msg[31]
*547 req_msg[3]
*548 req_msg[4]
*549 req_msg[5]
*550 req_msg[6]
*551 req_msg[7]
*552 req_msg[8]
*553 req_msg[9]
*554 net36
*555 req_val
*556 reset
*557 net37
*558 net38
*559 net39
*560 net40
*561 net41
*562 net42
*563 net43
*564 net44
*565 net45
*566 net46
*567 net47
*568 net48
*569 net49
*570 net50
*571 net51
*572 net52
*573 resp_rdy
*574 net53
*577 net1
*578 net2
*579 net3
*580 net4
*581 net5
*582 net6
*583 net7
*584 net8
*585 net9
*586 net10
*587 net11
*588 net12
*589 net13
*590 net14
*591 net15
*592 net16
*593 net17
*594 net18
*595 net19
*596 net20
*597 net21
*598 net22
*599 net23
*600 net24
*601 net25
*602 net26
*603 net27
*604 net28
*605 net29
*606 net30
*607 net31
*608 net32
*609 net33
*610 net34
*611 net35
*612 req_rdy
*613 resp_msg[0]
*614 resp_msg[10]
*615 resp_msg[11]
*616 resp_msg[12]
*617 resp_msg[13]
*618 resp_msg[14]
*619 resp_msg[15]
*620 resp_msg[1]
*621 resp_msg[2]
*622 resp_msg[3]
*623 resp_msg[4]
*624 resp_msg[5]
*625 resp_msg[6]
*626 resp_msg[7]
*627 resp_msg[8]
*628 resp_msg[9]
*629 resp_val
*630 clknet_0_clk
*631 clknet_2_0__leaf_clk
*632 clknet_2_1__leaf_clk
*633 clknet_2_2__leaf_clk
*634 clknet_2_3__leaf_clk
*635 net54
*636 net55
*637 net56
*638 net57
*639 net58
*640 net59
*641 net60
*642 net78
*643 net79
*644 net86
*645 net87
*646 net88
*647 net89
*648 net90
*649 net91
*650 net92
*651 net93
*652 net94
*653 net95
*654 net96
*655 net97
*656 net98
*657 net100
*658 net101
*659 net113
*660 net114
*661 net115
*662 net116
*663 net117
*664 net118
*665 net62
*666 net63
*667 net65
*668 net70
*669 net71
*670 net72
*671 _486_
*672 _487_
*673 _488_
*674 _489_
*675 _490_
*676 _491_
*677 _492_
*678 _493_
*679 _494_
*680 _495_
*681 _496_
*682 _497_
*683 _498_
*684 _499_
*685 _500_
*686 _501_
*687 _502_
*688 _503_
*689 _504_
*690 _505_
*691 _506_
*692 _507_
*693 _508_
*694 _509_
*695 _510_
*696 _511_
*697 _512_
*698 _513_
*699 _514_
*700 _515_
*701 _516_
*702 _517_
*703 _518_
*704 _519_
*705 _520_
*706 _521_
*707 _522_
*708 _523_
*709 _524_
*710 _525_
*711 rebuffer8
*712 _527_
*713 _528_
*714 _529_
*715 _530_
*716 _531_
*717 _532_
*718 _533_
*719 _534_
*720 _535_
*721 _536_
*722 _537_
*723 _538_
*724 _539_
*725 _540_
*726 _541_
*727 _542_
*728 _543_
*729 _544_
*730 _545_
*731 _546_
*732 _547_
*733 _548_
*734 _549_
*735 _550_
*736 _551_
*737 _552_
*738 _553_
*739 _554_
*740 _555_
*741 _556_
*742 _557_
*743 _558_
*744 _559_
*745 _560_
*746 _561_
*747 _562_
*748 _563_
*749 _564_
*750 _565_
*751 _566_
*752 _567_
*753 _568_
*754 _569_
*755 _570_
*756 _571_
*757 _572_
*758 _573_
*759 _574_
*760 _575_
*761 _576_
*762 _577_
*763 _578_
*764 _579_
*765 _580_
*766 _581_
*767 _582_
*768 _583_
*769 _584_
*770 _585_
*771 _586_
*772 _587_
*773 _588_
*774 _589_
*775 _590_
*776 _591_
*777 _592_
*778 _593_
*779 _594_
*780 _595_
*781 _596_
*782 _597_
*783 _598_
*784 _599_
*785 _600_
*786 _601_
*787 _602_
*788 _603_
*789 _604_
*790 _605_
*791 _606_
*792 _607_
*793 _608_
*794 _609_
*795 _610_
*796 _611_
*797 _612_
*798 _613_
*799 _614_
*800 _615_
*801 _616_
*802 _617_
*803 _618_
*804 _619_
*805 _620_
*806 _621_
*807 _622_
*808 _623_
*809 _624_
*810 _625_
*811 _626_
*812 _627_
*813 _628_
*814 _629_
*815 _630_
*816 _631_
*817 _632_
*818 _633_
*819 _634_
*820 _635_
*821 _636_
*822 _637_
*823 _638_
*824 _639_
*825 _640_
*826 _641_
*827 _642_
*828 _643_
*829 _644_
*830 _645_
*831 _646_
*832 _647_
*833 _648_
*834 _649_
*835 _650_
*836 _651_
*837 _652_
*838 _653_
*839 _654_
*840 _655_
*841 _656_
*842 _657_
*843 _658_
*844 _659_
*845 _660_
*846 _661_
*847 _662_
*848 _663_
*849 _664_
*850 _665_
*851 _666_
*852 _667_
*853 _668_
*854 _669_
*855 _670_
*856 _671_
*857 _672_
*858 _673_
*859 _674_
*860 _675_
*861 _676_
*862 _677_
*863 _678_
*864 _679_
*865 _680_
*866 _681_
*867 _682_
*868 _683_
*869 _684_
*870 _685_
*871 _686_
*872 _687_
*873 _688_
*874 _689_
*875 _690_
*876 _691_
*877 _692_
*878 _693_
*879 _694_
*880 _695_
*881 _696_
*882 _697_
*883 _698_
*884 _699_
*885 _700_
*886 _701_
*887 _702_
*888 _703_
*889 _704_
*890 _705_
*891 _706_
*892 _707_
*893 _708_
*894 _709_
*895 _710_
*896 _711_
*897 _712_
*898 _713_
*899 _714_
*900 _715_
*901 _716_
*902 _717_
*903 _718_
*904 _719_
*905 _720_
*906 _721_
*907 _722_
*908 _723_
*909 _724_
*910 _725_
*911 _726_
*912 _727_
*913 _728_
*914 _729_
*915 _730_
*916 _731_
*917 _732_
*918 _733_
*919 _734_
*920 _735_
*921 _736_
*922 _737_
*923 _738_
*924 _739_
*925 _740_
*926 _741_
*927 _742_
*928 _743_
*929 _744_
*930 _745_
*931 _746_
*932 _747_
*933 _748_
*934 _749_
*935 _750_
*936 _751_
*937 _752_
*938 _753_
*939 _754_
*940 _755_
*941 _756_
*942 _757_
*943 _758_
*944 _759_
*945 _760_
*946 _761_
*947 _762_
*948 _763_
*949 _764_
*950 _765_
*951 _766_
*952 _767_
*953 _768_
*954 _769_
*955 _770_
*956 _771_
*957 _772_
*958 _773_
*959 _774_
*960 _775_
*961 _776_
*962 _777_
*963 _778_
*964 _779_
*965 _780_
*966 _781_
*967 _782_
*968 _783_
*969 _784_
*970 _785_
*971 _786_
*972 _787_
*973 _788_
*974 _789_
*975 _790_
*976 _791_
*977 _792_
*978 _793_
*979 _794_
*980 _795_
*981 _796_
*982 _797_
*983 _798_
*984 _799_
*985 _800_
*986 _801_
*987 _802_
*988 _803_
*989 _804_
*990 _805_
*991 _806_
*992 _807_
*993 _808_
*994 _809_
*995 _810_
*996 _811_
*997 _812_
*998 _813_
*999 _814_
*1000 _815_
*1001 _816_
*1002 _817_
*1003 _818_
*1004 _819_
*1005 _820_
*1006 _821_
*1007 _822_
*1008 _823_
*1009 _824_
*1010 _825_
*1011 _826_
*1012 _827_
*1013 _828_
*1014 _829_
*1015 _830_
*1016 _831_
*1017 _832_
*1018 _833_
*1019 _834_
*1020 _835_
*1021 _836_
*1022 _837_
*1023 _838_
*1024 _839_
*1025 _840_
*1026 _841_
*1027 _842_
*1028 _843_
*1029 _844_
*1030 _845_
*1031 _846_
*1032 _847_
*1033 _848_
*1034 _849_
*1035 _850_
*1036 _851_
*1037 _852_
*1038 _853_
*1039 _854_
*1040 _855_
*1041 _856_
*1042 _857_
*1043 _858_
*1044 _859_
*1045 _860_
*1046 _861_
*1047 _862_
*1048 _863_
*1049 _864_
*1050 _865_
*1051 _866_
*1052 _867_
*1053 _868_
*1054 _869_
*1055 _870_
*1056 _871_
*1057 _872_
*1058 _873_
*1059 _874_
*1060 _875_
*1061 _876_
*1062 _877_
*1063 _878_
*1064 _879_
*1065 _880_
*1066 _881_
*1067 _882_
*1068 _883_
*1069 _884_
*1070 _885_
*1071 _886_
*1072 _887_
*1073 _888_
*1074 _889_
*1075 _890_
*1076 _891_
*1077 _892_
*1078 _893_
*1079 _894_
*1080 _895_
*1081 _896_
*1082 _897_
*1083 _898_
*1084 _899_
*1085 _900_
*1086 _901_
*1087 _902_
*1088 _903_
*1089 _904_
*1090 _905_
*1091 _906_
*1092 _907_
*1093 _908_
*1094 _909_
*1095 _910_
*1096 _911_
*1097 _912_
*1098 _913_
*1099 _914_
*1100 _915_
*1101 _916_
*1102 _917_
*1103 _918_
*1104 _919_
*1105 _920_
*1106 _921_
*1107 _922_
*1108 _923_
*1109 _924_
*1110 _925_
*1111 _926_
*1112 _927_
*1113 _928_
*1114 _929_
*1115 _930_
*1116 _931_
*1117 _932_
*1118 _933_
*1119 _934_
*1120 _935_
*1121 _936_
*1122 _937_
*1123 _938_
*1124 _939_
*1125 _940_
*1126 _941_
*1127 _942_
*1128 _943_
*1129 _944_
*1130 _945_
*1131 _946_
*1132 _947_
*1133 _948_
*1134 _949_
*1135 _950_
*1136 _951_
*1137 _952_
*1138 _953_
*1139 ctrl\.state\.out\[0\]\$_DFF_P_
*1140 ctrl\.state\.out\[1\]\$_DFF_P_
*1141 ctrl\.state\.out\[2\]\$_DFF_P_
*1142 dpath\.a_reg\.out\[0\]\$_DFFE_PP_
*1143 dpath\.a_reg\.out\[10\]\$_DFFE_PP_
*1144 dpath\.a_reg\.out\[11\]\$_DFFE_PP_
*1145 dpath\.a_reg\.out\[12\]\$_DFFE_PP_
*1146 dpath\.a_reg\.out\[13\]\$_DFFE_PP_
*1147 dpath\.a_reg\.out\[14\]\$_DFFE_PP_
*1148 dpath\.a_reg\.out\[15\]\$_DFFE_PP_
*1149 dpath\.a_reg\.out\[1\]\$_DFFE_PP_
*1150 dpath\.a_reg\.out\[2\]\$_DFFE_PP_
*1151 dpath\.a_reg\.out\[3\]\$_DFFE_PP_
*1152 dpath\.a_reg\.out\[4\]\$_DFFE_PP_
*1153 dpath\.a_reg\.out\[5\]\$_DFFE_PP_
*1154 dpath\.a_reg\.out\[6\]\$_DFFE_PP_
*1155 dpath\.a_reg\.out\[7\]\$_DFFE_PP_
*1156 dpath\.a_reg\.out\[8\]\$_DFFE_PP_
*1157 dpath\.a_reg\.out\[9\]\$_DFFE_PP_
*1158 dpath\.b_reg\.out\[0\]\$_DFFE_PP_
*1159 dpath\.b_reg\.out\[10\]\$_DFFE_PP_
*1160 dpath\.b_reg\.out\[11\]\$_DFFE_PP_
*1161 dpath\.b_reg\.out\[12\]\$_DFFE_PP_
*1162 dpath\.b_reg\.out\[13\]\$_DFFE_PP_
*1163 dpath\.b_reg\.out\[14\]\$_DFFE_PP_
*1164 dpath\.b_reg\.out\[15\]\$_DFFE_PP_
*1165 dpath\.b_reg\.out\[1\]\$_DFFE_PP_
*1166 dpath\.b_reg\.out\[2\]\$_DFFE_PP_
*1167 dpath\.b_reg\.out\[3\]\$_DFFE_PP_
*1168 dpath\.b_reg\.out\[4\]\$_DFFE_PP_
*1169 dpath\.b_reg\.out\[5\]\$_DFFE_PP_
*1170 dpath\.b_reg\.out\[6\]\$_DFFE_PP_
*1171 dpath\.b_reg\.out\[7\]\$_DFFE_PP_
*1172 dpath\.b_reg\.out\[8\]\$_DFFE_PP_
*1173 dpath\.b_reg\.out\[9\]\$_DFFE_PP_
*1174 PHY_EDGE_ROW_0_Right_0
*1175 PHY_EDGE_ROW_1_Right_1
*1176 PHY_EDGE_ROW_2_Right_2
*1177 PHY_EDGE_ROW_3_Right_3
*1178 PHY_EDGE_ROW_4_Right_4
*1179 PHY_EDGE_ROW_5_Right_5
*1180 PHY_EDGE_ROW_6_Right_6
*1181 PHY_EDGE_ROW_7_Right_7
*1182 PHY_EDGE_ROW_8_Right_8
*1183 PHY_EDGE_ROW_9_Right_9
*1184 PHY_EDGE_ROW_10_Right_10
*1185 PHY_EDGE_ROW_11_Right_11
*1186 PHY_EDGE_ROW_12_Right_12
*1187 PHY_EDGE_ROW_13_Right_13
*1188 PHY_EDGE_ROW_14_Right_14
*1189 PHY_EDGE_ROW_15_Right_15
*1190 PHY_EDGE_ROW_16_Right_16
*1191 PHY_EDGE_ROW_17_Right_17
*1192 PHY_EDGE_ROW_18_Right_18
*1193 PHY_EDGE_ROW_19_Right_19
*1194 PHY_EDGE_ROW_20_Right_20
*1195 PHY_EDGE_ROW_21_Right_21
*1196 PHY_EDGE_ROW_0_Left_22
*1197 PHY_EDGE_ROW_1_Left_23
*1198 PHY_EDGE_ROW_2_Left_24
*1199 PHY_EDGE_ROW_3_Left_25
*1200 PHY_EDGE_ROW_4_Left_26
*1201 PHY_EDGE_ROW_5_Left_27
*1202 PHY_EDGE_ROW_6_Left_28
*1203 PHY_EDGE_ROW_7_Left_29
*1204 PHY_EDGE_ROW_8_Left_30
*1205 PHY_EDGE_ROW_9_Left_31
*1206 PHY_EDGE_ROW_10_Left_32
*1207 PHY_EDGE_ROW_11_Left_33
*1208 PHY_EDGE_ROW_12_Left_34
*1209 PHY_EDGE_ROW_13_Left_35
*1210 PHY_EDGE_ROW_14_Left_36
*1211 PHY_EDGE_ROW_15_Left_37
*1212 PHY_EDGE_ROW_16_Left_38
*1213 PHY_EDGE_ROW_17_Left_39
*1214 PHY_EDGE_ROW_18_Left_40
*1215 PHY_EDGE_ROW_19_Left_41
*1216 PHY_EDGE_ROW_20_Left_42
*1217 PHY_EDGE_ROW_21_Left_43
*1218 input1
*1219 input2
*1220 input3
*1221 input4
*1222 input5
*1223 input6
*1224 input7
*1225 input8
*1226 input9
*1227 input10
*1228 input11
*1229 input12
*1230 input13
*1231 input14
*1232 input15
*1233 input16
*1234 input17
*1235 input18
*1236 input19
*1237 input20
*1238 input21
*1239 input22
*1240 input23
*1241 input24
*1242 input25
*1243 input26
*1244 input27
*1245 input28
*1246 input29
*1247 input30
*1248 input31
*1249 input32
*1250 input33
*1251 input34
*1252 input35
*1253 output36
*1254 output37
*1255 output38
*1256 output39
*1257 output40
*1258 output41
*1259 output42
*1260 output43
*1261 output44
*1262 output45
*1263 output46
*1264 output47
*1265 output48
*1266 output49
*1267 output50
*1268 output51
*1269 output52
*1270 output53
*1271 clkbuf_0_clk
*1272 clkbuf_2_0__f_clk
*1273 clkbuf_2_1__f_clk
*1274 clkbuf_2_2__f_clk
*1275 clkbuf_2_3__f_clk
*1276 clkload0
*1277 clkload1
*1278 clkload2
*1279 rebuffer1
*1280 rebuffer2
*1281 rebuffer3
*1282 rebuffer4
*1283 rebuffer5
*1284 rebuffer6
*1285 rebuffer7
*1286 rebuffer25
*1287 rebuffer26
*1288 rebuffer33
*1289 rebuffer34
*1290 rebuffer35
*1291 rebuffer36
*1292 rebuffer37
*1293 rebuffer38
*1294 rebuffer39
*1295 rebuffer40
*1296 rebuffer41
*1297 rebuffer42
*1298 rebuffer43
*1299 rebuffer44
*1300 rebuffer45
*1301 rebuffer47
*1302 rebuffer48
*1303 rebuffer60
*1304 rebuffer61
*1305 rebuffer62
*1306 rebuffer63
*1307 clone64
*1308 clone65
*1309 rebuffer9
*1310 rebuffer10
*1311 rebuffer12
*1312 clone17
*1313 rebuffer18
*1314 clone19
*1315 FILLER_0_1
*1316 FILLER_0_40
*1317 FILLER_0_49
*1318 FILLER_0_62
*1319 FILLER_0_75
*1320 FILLER_0_84
*1321 FILLER_0_163
*1322 FILLER_1_1
*1323 FILLER_1_150
*1324 FILLER_1_159
*1325 FILLER_2_1
*1326 FILLER_2_38
*1327 FILLER_3_1
*1328 FILLER_3_22
*1329 FILLER_3_52
*1330 FILLER_3_61
*1331 FILLER_3_80
*1332 FILLER_4_21
*1333 FILLER_4_38
*1334 FILLER_4_71
*1335 FILLER_4_152
*1336 FILLER_5_28
*1337 FILLER_5_40
*1338 FILLER_5_45
*1339 FILLER_5_54
*1340 FILLER_5_70
*1341 FILLER_6_1
*1342 FILLER_6_5
*1343 FILLER_6_24
*1344 FILLER_6_32
*1345 FILLER_6_37
*1346 FILLER_6_61
*1347 FILLER_6_66
*1348 FILLER_6_133
*1349 FILLER_7_4
*1350 FILLER_7_34
*1351 FILLER_7_42
*1352 FILLER_7_44
*1353 FILLER_7_65
*1354 FILLER_8_1
*1355 FILLER_8_9
*1356 FILLER_8_19
*1357 FILLER_8_26
*1358 FILLER_8_30
*1359 FILLER_8_43
*1360 FILLER_8_84
*1361 FILLER_8_128
*1362 FILLER_9_1
*1363 FILLER_9_23
*1364 FILLER_9_29
*1365 FILLER_9_31
*1366 FILLER_9_51
*1367 FILLER_9_100
*1368 FILLER_9_145
*1369 FILLER_10_25
*1370 FILLER_10_27
*1371 FILLER_10_82
*1372 FILLER_10_162
*1373 FILLER_11_4
*1374 FILLER_11_6
*1375 FILLER_11_10
*1376 FILLER_11_26
*1377 FILLER_11_34
*1378 FILLER_11_48
*1379 FILLER_11_63
*1380 FILLER_11_78
*1381 FILLER_11_84
*1382 FILLER_11_163
*1383 FILLER_12_7
*1384 FILLER_12_15
*1385 FILLER_12_17
*1386 FILLER_12_26
*1387 FILLER_12_30
*1388 FILLER_12_64
*1389 FILLER_12_73
*1390 FILLER_13_1
*1391 FILLER_13_34
*1392 FILLER_13_36
*1393 FILLER_13_40
*1394 FILLER_13_87
*1395 FILLER_13_153
*1396 FILLER_14_1
*1397 FILLER_14_9
*1398 FILLER_14_11
*1399 FILLER_14_23
*1400 FILLER_14_27
*1401 FILLER_14_32
*1402 FILLER_14_42
*1403 FILLER_14_78
*1404 FILLER_14_82
*1405 FILLER_14_98
*1406 FILLER_14_108
*1407 FILLER_14_163
*1408 FILLER_15_1
*1409 FILLER_15_3
*1410 FILLER_15_24
*1411 FILLER_15_43
*1412 FILLER_15_50
*1413 FILLER_15_72
*1414 FILLER_15_74
*1415 FILLER_15_87
*1416 FILLER_15_95
*1417 FILLER_15_106
*1418 FILLER_15_143
*1419 FILLER_16_1
*1420 FILLER_16_5
*1421 FILLER_16_10
*1422 FILLER_16_25
*1423 FILLER_16_34
*1424 FILLER_16_78
*1425 FILLER_16_154
*1426 FILLER_17_1
*1427 FILLER_17_22
*1428 FILLER_17_24
*1429 FILLER_17_42
*1430 FILLER_17_64
*1431 FILLER_17_77
*1432 FILLER_17_79
*1433 FILLER_17_124
*1434 FILLER_18_1
*1435 FILLER_18_17
*1436 FILLER_18_26
*1437 FILLER_18_30
*1438 FILLER_18_34
*1439 FILLER_18_36
*1440 FILLER_18_72
*1441 FILLER_18_82
*1442 FILLER_18_95
*1443 FILLER_18_109
*1444 FILLER_18_119
*1445 FILLER_18_125
*1446 FILLER_18_142
*1447 FILLER_18_152
*1448 FILLER_18_154
*1449 FILLER_19_1
*1450 FILLER_19_17
*1451 FILLER_19_43
*1452 FILLER_19_57
*1453 FILLER_19_61
*1454 FILLER_19_71
*1455 FILLER_19_76
*1456 FILLER_19_80
*1457 FILLER_19_114
*1458 FILLER_19_116
*1459 FILLER_19_130
*1460 FILLER_19_142
*1461 FILLER_19_158
*1462 FILLER_19_163
*1463 FILLER_20_1
*1464 FILLER_20_9
*1465 FILLER_20_101
*1466 FILLER_20_116
*1467 FILLER_20_133
*1468 FILLER_20_149
*1469 FILLER_20_157
*1470 FILLER_20_161
*1471 FILLER_20_163
*1472 FILLER_21_1
*1473 FILLER_21_17
*1474 FILLER_21_23
*1475 FILLER_21_25
*1476 FILLER_21_39
*1477 FILLER_21_46
*1478 FILLER_21_51
*1479 FILLER_21_55
*1480 FILLER_21_57
*1481 FILLER_21_64
*1482 FILLER_21_74
*1483 FILLER_21_90
*1484 FILLER_21_98
*1485 FILLER_21_102
*1486 FILLER_21_115
*1487 FILLER_21_123
*1488 FILLER_21_134
*1489 FILLER_21_150
*1490 FILLER_21_158
*1491 FILLER_21_162

*PORTS
clk I
req_msg[0] I
req_msg[10] I
req_msg[11] I
req_msg[12] I
req_msg[13] I
req_msg[14] I
req_msg[15] I
req_msg[16] I
req_msg[17] I
req_msg[18] I
req_msg[19] I
req_msg[1] I
req_msg[20] I
req_msg[21] I
req_msg[22] I
req_msg[23] I
req_msg[24] I
req_msg[25] I
req_msg[26] I
req_msg[27] I
req_msg[28] I
req_msg[29] I
req_msg[2] I
req_msg[30] I
req_msg[31] I
req_msg[3] I
req_msg[4] I
req_msg[5] I
req_msg[6] I
req_msg[7] I
req_msg[8] I
req_msg[9] I
req_rdy O
req_val I
reset I
resp_msg[0] O
resp_msg[10] O
resp_msg[11] O
resp_msg[12] O
resp_msg[13] O
resp_msg[14] O
resp_msg[15] O
resp_msg[1] O
resp_msg[2] O
resp_msg[3] O
resp_msg[4] O
resp_msg[5] O
resp_msg[6] O
resp_msg[7] O
resp_msg[8] O
resp_msg[9] O
resp_rdy I
resp_val O

*D_NET *1 0.000129995
*CONN
*I *1139:D I *D DFF_X1
*I *706:ZN O *D OAI21_X1
*CAP
1 *1139:D 2.93835e-05
2 *706:ZN 2.93835e-05
3 *1139:D *702:B2 2.4438e-06
4 *1139:D *706:B2 1.76665e-06
5 *1139:D *1270:A 2.81073e-05
6 *1139:D *609:8 3.89107e-05
*RES
1 *706:ZN *1139:D 14.6786 
*END

*D_NET *2 0.000111443
*CONN
*I *1140:D I *D DFF_X1
*I *709:ZN O *D OAI21_X1
*CAP
1 *1140:D 5.00973e-05
2 *709:ZN 5.00973e-05
3 *1140:D *701:A2 0
4 *1140:D *707:A2 1.23562e-06
5 *1140:D *1014:A2 1.39839e-06
6 *1140:D *14:18 8.61449e-06
7 *1140:D *68:87 0
8 *1140:D *584:18 0
*RES
1 *709:ZN *1140:D 15.25 
*END

*D_NET *3 0.000202632
*CONN
*I *1141:D I *D DFF_X1
*I *699:ZN O *D OAI22_X1
*CAP
1 *1141:D 6.6687e-05
2 *699:ZN 6.6687e-05
3 *1141:D *699:A2 2.61469e-06
4 *1141:D *699:B1 2.39679e-06
5 *1141:D *701:A2 5.72955e-06
6 *1141:D *709:B2 2.89521e-06
7 *1141:D *1014:A1 2.48018e-05
8 *1141:D *57:12 5.42037e-06
9 *1141:D *68:87 1.26998e-05
10 *1141:D *190:54 1.26998e-05
*RES
1 *699:ZN *1141:D 28.1429 
*END

*D_NET *4 0.000841002
*CONN
*I *820:A2 I *D NAND2_X2
*I *700:A I *D BUF_X4
*I *1139:QN O *D DFF_X1
*CAP
1 *820:A2 0.000108133
2 *700:A 6.09993e-06
3 *1139:QN 6.23835e-05
4 *4:8 0.000176617
5 *700:A *62:103 7.19036e-06
6 *700:A *187:75 2.52965e-06
7 *820:A2 *701:A3 3.81944e-05
8 *820:A2 *820:A1 2.75346e-06
9 *820:A2 *833:A1 0
10 *820:A2 *833:A2 0
11 *820:A2 *1271:A 0.000245189
12 *820:A2 *67:8 1.93661e-06
13 *820:A2 *67:14 2.55787e-06
14 *820:A2 *67:115 4.65522e-06
15 *820:A2 *100:49 4.08409e-05
16 *820:A2 *407:10 0
17 *4:8 *701:A3 0.000104339
18 *4:8 *1271:A 2.27908e-05
19 *4:8 *100:49 1.47914e-05
*RES
1 *1139:QN *4:8 19.0714 
2 *4:8 *700:A 10.75 
3 *4:8 *820:A2 27.3929 
*END

*D_NET *5 0.000446246
*CONN
*I *1142:D I *D DFF_X1
*I *832:ZN O *D NAND2_X1
*CAP
1 *1142:D 9.69698e-05
2 *832:ZN 9.69698e-05
3 *1142:D *831:B1 7.72919e-05
4 *1142:D *832:A2 4.06611e-05
5 *1142:D *1004:A2 3.53351e-06
6 *1142:D *1149:CK 5.2375e-05
7 *1142:D *1262:A 3.09405e-06
8 *1142:D *14:18 6.48216e-07
9 *1142:D *490:17 5.8096e-07
10 *1142:D *565:26 1.80427e-05
11 *1142:D *584:18 5.60792e-05
*RES
1 *832:ZN *1142:D 33.8929 
*END

*D_NET *6 0.000279039
*CONN
*I *1143:D I *D DFF_X1
*I *854:ZN O *D NAND2_X1
*CAP
1 *1143:D 8.31675e-05
2 *854:ZN 8.31675e-05
3 *1143:D *901:A1 0
4 *1143:D *1079:A2 4.72098e-05
5 *1143:D *1139:CK 1.58635e-05
6 *1143:D *1143:CK 4.24402e-05
7 *1143:D *1219:A 0
8 *1143:D *633:56 7.19036e-06
*RES
1 *854:ZN *1143:D 30.5 
*END

*D_NET *7 0.000231336
*CONN
*I *1144:D I *D DFF_X1
*I *903:ZN O *D NAND2_X1
*CAP
1 *1144:D 0.000100146
2 *903:ZN 0.000100146
3 *1144:D *902:B2 3.11446e-06
4 *1144:D *903:A2 0
5 *1144:D *1236:A 5.10691e-06
6 *1144:D *68:117 2.37916e-06
7 *1144:D *190:81 2.04442e-05
*RES
1 *903:ZN *1144:D 29.75 
*END

*D_NET *8 0.000174347
*CONN
*I *1145:D I *D DFF_X1
*I *923:ZN O *D NAND2_X1
*CAP
1 *1145:D 5.52558e-05
2 *923:ZN 5.52558e-05
3 *1145:D *923:A2 4.33476e-05
4 *1145:D *187:103 0
5 *1145:D *633:35 1.61774e-05
6 *1145:D *633:37 2.39679e-06
7 *1145:D *633:43 1.91319e-06
*RES
1 *923:ZN *1145:D 26.5357 
*END

*D_NET *9 0.000274324
*CONN
*I *1146:D I *D DFF_X1
*I *951:ZN O *D NAND2_X1
*CAP
1 *1146:D 0.000110798
2 *951:ZN 0.000110798
3 *1146:D *759:A 3.35822e-05
4 *1146:D *951:A2 0
5 *1146:D *68:132 1.34605e-05
6 *1146:D *633:43 5.68564e-06
*RES
1 *951:ZN *1146:D 31.6429 
*END

*D_NET *10 0.000165387
*CONN
*I *1147:D I *D DFF_X1
*I *972:ZN O *D NAND2_X1
*CAP
1 *1147:D 4.4744e-05
2 *972:ZN 4.4744e-05
3 *1147:D *950:B2 1.40196e-05
4 *1147:D *970:A1 0
5 *1147:D *989:A2 5.54369e-05
6 *1147:D *633:31 6.44217e-06
*RES
1 *972:ZN *1147:D 26.2143 
*END

*D_NET *11 0.000176724
*CONN
*I *1148:D I *D DFF_X2
*I *992:ZN O *D NAND2_X1
*CAP
1 *1148:D 7.23051e-05
2 *992:ZN 7.23051e-05
3 *1148:D *992:A1 1.17632e-05
4 *1148:D *992:A2 1.17632e-05
5 *1148:D *1148:CK 8.58678e-06
6 *1148:D *190:92 0
*RES
1 *992:ZN *1148:D 27.8214 
*END

*D_NET *12 0.000370761
*CONN
*I *1149:D I *D DFF_X1
*I *1000:ZN O *D NAND2_X1
*CAP
1 *1149:D 9.67725e-05
2 *1000:ZN 9.67725e-05
3 *1149:D *999:B2 5.69557e-06
4 *1149:D *1000:A2 2.7594e-05
5 *1149:D *1104:B 4.36421e-06
6 *1149:D *1263:A 5.11118e-06
7 *1149:D *68:66 1.63742e-06
8 *1149:D *547:21 9.55318e-06
9 *1149:D *655:22 0.000123261
*RES
1 *1000:ZN *1149:D 31.6429 
*END

*D_NET *13 0.000534918
*CONN
*I *1150:D I *D DFF_X1
*I *1007:ZN O *D NAND2_X1
*CAP
1 *1150:D 0.000164271
2 *1007:ZN 0.000164271
3 *1150:D *683:A 3.71888e-05
4 *1150:D *999:A 5.32617e-06
5 *1150:D *1005:A2 4.79658e-06
6 *1150:D *1007:A1 4.34139e-06
7 *1150:D *1107:A1 2.79985e-05
8 *1150:D *1107:A2 6.84295e-05
9 *1150:D *1113:A1 3.85126e-05
10 *1150:D *418:28 5.81102e-06
11 *1150:D *498:20 1.26976e-05
12 *1150:D *547:21 1.27404e-06
*RES
1 *1007:ZN *1150:D 38.9286 
*END

*D_NET *14 0.00157787
*CONN
*I *1151:D I *D DFF_X1
*I *1014:ZN O *D NAND2_X1
*CAP
1 *1151:D 5.65945e-05
2 *1014:ZN 0.000334579
3 *14:18 0.000391174
4 *1151:D *1012:A2 2.25859e-05
5 *1151:D *1123:A1 0.000125323
6 *1151:D *49:16 8.30627e-06
7 *1151:D *407:36 2.25859e-05
8 *1151:D *499:27 3.03933e-06
9 *1151:D *532:29 0.000111419
10 *14:18 *1000:A1 2.13263e-05
11 *14:18 *1104:B 1.22262e-06
12 *14:18 *1113:A2 1.93528e-06
13 *14:18 *1149:CK 0
14 *14:18 *1247:A 3.86864e-06
15 *14:18 *1262:A 3.55629e-06
16 *14:18 *67:149 3.05069e-05
17 *14:18 *68:66 0
18 *14:18 *68:87 0
19 *14:18 *356:14 0
20 *14:18 *431:14 7.12605e-06
21 *14:18 *440:14 1.50581e-06
22 *14:18 *487:15 0.000201093
23 *14:18 *565:26 2.49204e-05
24 *14:18 *631:68 4.86788e-05
25 *14:18 *660:18 0.00014726
26 *1140:D *14:18 8.61449e-06
27 *1142:D *14:18 6.48216e-07
*RES
1 *1014:ZN *14:18 48.0772 
2 *14:18 *1151:D 20.0357 
*END

*D_NET *15 0.00249329
*CONN
*I *1152:D I *D DFF_X1
*I *1021:ZN O *D NAND2_X2
*CAP
1 *1152:D 8.4943e-05
2 *1021:ZN 0.000314689
3 *15:24 0.000399632
4 *1152:D *681:A 0.00014766
5 *1152:D *1168:D 7.93918e-05
6 *1152:D *31:14 1.2723e-05
7 *1152:D *180:68 9.43867e-05
8 *1152:D *368:12 1.0024e-05
9 *1152:D *517:30 4.44127e-06
10 *15:24 *1012:A2 6.54288e-06
11 *15:24 *1113:A2 0
12 *15:24 *48:29 1.28071e-05
13 *15:24 *63:28 3.76821e-05
14 *15:24 *63:32 0.000101869
15 *15:24 *67:128 1.28071e-05
16 *15:24 *189:130 7.09666e-06
17 *15:24 *356:14 5.32769e-06
18 *15:24 *359:34 8.39667e-06
19 *15:24 *394:16 0.000180198
20 *15:24 *435:20 0.000501235
21 *15:24 *440:14 1.24586e-05
22 *15:24 *500:34 2.60467e-05
23 *15:24 *536:23 5.78364e-06
24 *15:24 *624:18 0.000427153
*RES
1 *1021:ZN *15:24 47.66 
2 *15:24 *1152:D 25.9643 
*END

*D_NET *16 0.00173246
*CONN
*I *1153:D I *D DFF_X1
*I *1031:ZN O *D NAND2_X1
*CAP
1 *1153:D 0.000266455
2 *1031:ZN 0.000131127
3 *16:14 0.000397583
4 *1153:D *686:A 1.68407e-05
5 *1153:D *739:A2 0
6 *1153:D *742:A2 1.10025e-05
7 *1153:D *755:B1 1.5292e-05
8 *1153:D *866:A2 7.55381e-05
9 *1153:D *911:A 4.76183e-05
10 *1153:D *932:A1 5.3197e-07
11 *1153:D *1050:A1 1.84691e-05
12 *1153:D *1129:A1 0.000228935
13 *1153:D *1170:D 2.30833e-05
14 *1153:D *96:32 0.000123788
15 *1153:D *100:8 1.95093e-05
16 *1153:D *200:12 3.2893e-05
17 *1153:D *232:23 0
18 *1153:D *239:12 8.68394e-06
19 *1153:D *282:10 7.65854e-05
20 *1153:D *286:14 1.38941e-05
21 *16:14 *865:A 2.78359e-05
22 *16:14 *1031:A1 0
23 *16:14 *1033:A1 7.39382e-06
24 *16:14 *1060:A2 1.19839e-05
25 *16:14 *1065:A1 4.17561e-05
26 *16:14 *1065:A2 4.17561e-05
27 *16:14 *1066:A 8.59009e-06
28 *16:14 *56:8 3.51939e-05
29 *16:14 *180:12 2.55683e-06
30 *16:14 *180:26 1.6095e-06
31 *16:14 *182:83 3.01642e-06
32 *16:14 *182:94 4.73311e-06
33 *16:14 *536:23 3.82042e-05
*RES
1 *1031:ZN *16:14 36.9286 
2 *16:14 *1153:D 48.4643 
*END

*D_NET *17 0.00123965
*CONN
*I *1154:D I *D DFF_X1
*I *1038:ZN O *D NAND2_X1
*CAP
1 *1154:D 0.000219611
2 *1038:ZN 0.000219611
3 *1154:D *686:A 0.000132143
4 *1154:D *1042:A2 1.96924e-05
5 *1154:D *1044:A1 0.000273536
6 *1154:D *1234:A 0.000331119
7 *1154:D *52:29 8.78664e-07
8 *1154:D *376:18 1.31827e-05
9 *1154:D *518:33 2.98744e-05
*RES
1 *1038:ZN *1154:D 47.5843 
*END
