*SPEF "ieee 1481-1999"
*DESIGN "gcd"
*DATE "15:39:36 Friday March 28, 2025"
*VENDOR "The OpenROAD Project"
*PROGRAM "OpenROAD"
*VERSION "v2.0-17941-g7fb347f37"
*DESIGN_FLOW "NAME_SCOPE LOCAL" "PIN_CAP NONE"
*DIVIDER /
*DELIMITER :
*BUS_DELIMITER []
*T_UNIT 1 NS
*C_UNIT 1 PF
*R_UNIT 1 OHM
*L_UNIT 1 HENRY

*NAME_MAP
*1 _000_
*2 _001_
*3 _002_
*4 _003_
*5 _004_
*6 _005_
*7 _006_
*8 _007_
*9 _008_
*10 _009_
*11 _010_
*12 _011_
*13 _012_
*14 _013_
*15 _014_
*16 _015_
*17 _016_
*18 _017_
*19 _018_
*20 _019_
*21 _020_
*22 _021_
*23 _022_
*24 _023_
*25 _024_
*26 _025_
*27 _026_
*28 _027_
*29 _028_
*30 _029_
*31 _030_
*32 _031_
*33 _032_
*34 _033_
*35 _034_
*36 _035_
*37 _036_
*38 _037_
*39 _038_
*40 _039_
*41 _040_
*42 _041_
*43 _042_
*44 _043_
*45 _044_
*46 _045_
*47 _046_
*48 _047_
*49 _048_
*50 _049_
*51 _050_
*52 _051_
*53 _052_
*54 _053_
*55 _054_
*56 _055_
*57 _056_
*58 _057_
*59 _058_
*60 _059_
*61 _060_
*62 _061_
*63 _062_
*64 _063_
*65 _064_
*66 _065_
*67 _066_
*68 _067_
*69 _068_
*70 _069_
*71 _070_
*72 net106
*73 _072_
*74 _073_
*75 _074_
*76 _075_
*77 _076_
*78 _077_
*79 _078_
*80 _079_
*81 _080_
*82 _081_
*83 _082_
*84 _083_
*85 _084_
*86 _085_
*87 _086_
*88 _087_
*89 _088_
*90 _089_
*91 _090_
*92 _091_
*93 _092_
*94 _093_
*95 _094_
*96 _095_
*97 _096_
*98 _097_
*99 _098_
*100 _099_
*101 _100_
*102 _101_
*103 _102_
*104 _103_
*105 _104_
*106 _105_
*107 _106_
*108 _107_
*109 _108_
*110 _109_
*111 _110_
*112 _111_
*113 _112_
*114 _113_
*115 _114_
*116 _115_
*117 _116_
*118 _117_
*119 _118_
*120 _119_
*121 _120_
*122 _121_
*123 _122_
*124 _123_
*125 _124_
*126 _125_
*127 _126_
*128 _127_
*129 _128_
*130 _129_
*131 _130_
*132 _131_
*133 _132_
*134 _133_
*135 _134_
*136 _135_
*137 _136_
*138 _137_
*139 _138_
*140 _139_
*141 _140_
*142 _141_
*143 _142_
*144 _143_
*145 _144_
*146 _145_
*147 _146_
*148 _147_
*149 _148_
*150 _149_
*151 _150_
*152 _151_
*153 _152_
*154 _153_
*155 _154_
*156 _155_
*157 _156_
*158 _157_
*159 _158_
*160 _159_
*161 _160_
*162 _161_
*163 _162_
*164 _163_
*165 _164_
*166 _165_
*167 _166_
*168 _167_
*169 _168_
*170 _169_
*171 _170_
*172 _171_
*173 _172_
*174 _173_
*175 _174_
*176 _175_
*177 _176_
*178 _177_
*179 _178_
*180 _179_
*181 _180_
*182 _181_
*183 _182_
*184 _183_
*185 _184_
*186 _185_
*187 _186_
*188 _187_
*189 _188_
*190 _189_
*191 _190_
*192 _191_
*193 _192_
*194 _193_
*195 _194_
*196 _195_
*197 _196_
*198 _197_
*199 _198_
*200 _199_
*201 _200_
*202 _201_
*203 _202_
*204 _203_
*205 _204_
*206 _205_
*207 _206_
*208 _207_
*209 _208_
*210 _209_
*211 _210_
*212 _211_
*213 _212_
*214 _213_
*215 _214_
*216 _215_
*217 _216_
*218 _217_
*219 _218_
*220 _219_
*221 _220_
*222 _221_
*223 _222_
*224 _223_
*225 _224_
*226 _225_
*227 _226_
*228 _227_
*229 _228_
*230 _229_
*231 _230_
*232 _231_
*233 _232_
*234 _233_
*235 _234_
*236 _235_
*237 _236_
*238 _237_
*239 _238_
*240 _239_
*241 _240_
*242 _241_
*243 _242_
*244 _243_
*245 _244_
*246 _245_
*247 _246_
*248 _247_
*249 _248_
*250 _249_
*251 _250_
*252 _251_
*253 _252_
*254 _253_
*255 _254_
*256 _255_
*257 _256_
*258 _257_
*259 _258_
*260 _259_
*261 _260_
*262 _261_
*263 _262_
*264 _263_
*265 _264_
*266 _265_
*267 _266_
*268 _267_
*269 _268_
*270 _269_
*271 _270_
*272 _271_
*273 _272_
*274 _273_
*275 _274_
*276 _275_
*277 _276_
*278 _277_
*279 _278_
*280 _279_
*281 _280_
*282 _281_
*283 _282_
*284 _283_
*285 _284_
*286 _285_
*287 _286_
*288 _287_
*289 _288_
*290 _289_
*291 _290_
*292 _291_
*293 _292_
*294 _293_
*295 _294_
*296 _295_
*297 _296_
*298 _297_
*299 _298_
*300 _299_
*301 _300_
*302 _301_
*303 _302_
*304 _303_
*305 _304_
*306 _305_
*307 _306_
*308 _307_
*309 _308_
*310 _309_
*311 _310_
*312 _311_
*313 _312_
*314 _313_
*315 _314_
*316 _315_
*317 _316_
*318 _317_
*319 _318_
*320 _319_
*321 _320_
*322 _321_
*323 _322_
*324 _323_
*325 _324_
*326 _325_
*327 _326_
*328 _327_
*329 _328_
*330 _329_
*331 _330_
*332 _331_
*333 _332_
*334 _333_
*335 _334_
*336 _335_
*337 _336_
*338 _337_
*339 _338_
*340 _339_
*341 _340_
*342 _341_
*343 _342_
*344 _343_
*345 _344_
*346 _345_
*347 _346_
*348 _347_
*349 _348_
*350 _349_
*351 _350_
*352 _351_
*353 _352_
*354 _353_
*355 _354_
*356 _355_
*357 _356_
*358 _357_
*359 _358_
*360 _359_
*361 _360_
*362 _361_
*363 _362_
*364 _363_
*365 _364_
*366 _365_
*367 _366_
*368 _367_
*369 _368_
*370 _369_
*371 _370_
*372 _371_
*373 _372_
*374 _373_
*375 _374_
*376 _375_
*377 _376_
*378 _377_
*379 _378_
*380 _379_
*381 _380_
*382 _381_
*383 _382_
*384 _383_
*385 _384_
*386 _385_
*387 _386_
*388 _387_
*389 _388_
*390 _389_
*391 _390_
*392 _391_
*393 _392_
*394 _393_
*395 _394_
*396 _395_
*397 _396_
*398 _397_
*399 _398_
*400 _399_
*401 _400_
*402 _401_
*403 _402_
*404 _403_
*405 _404_
*406 _405_
*407 _406_
*408 _407_
*409 _408_
*410 _409_
*411 _410_
*412 _411_
*413 _412_
*414 _413_
*415 _414_
*416 _415_
*417 _416_
*418 _417_
*419 _418_
*420 _419_
*421 _420_
*422 _421_
*423 _422_
*424 _423_
*425 _424_
*426 _425_
*427 _426_
*428 _427_
*429 _428_
*430 _429_
*431 _430_
*432 _431_
*433 _432_
*434 _433_
*435 _434_
*436 _435_
*437 _436_
*438 _437_
*439 _438_
*440 _439_
*441 _440_
*442 _441_
*443 _442_
*444 _443_
*445 _444_
*446 _445_
*447 _446_
*448 _447_
*449 _448_
*450 _449_
*451 _450_
*452 _451_
*453 _452_
*454 _453_
*455 _454_
*456 _455_
*457 _456_
*458 _457_
*459 _458_
*460 _459_
*461 _460_
*462 _461_
*463 _462_
*464 _463_
*465 _464_
*466 _465_
*467 _466_
*468 _467_
*469 _468_
*470 _469_
*471 _470_
*472 _471_
*473 _472_
*474 _473_
*475 _474_
*476 _475_
*477 _476_
*478 _477_
*479 _478_
*480 _479_
*481 _480_
*482 _481_
*483 _482_
*484 _483_
*485 _484_
*486 _485_
*487 clk
*488 ctrl\.state\.out\[1\]
*489 ctrl\.state\.out\[2\]
*490 dpath\.a_lt_b\$in0\[0\]
*491 dpath\.a_lt_b\$in0\[10\]
*492 dpath\.a_lt_b\$in0\[11\]
*493 dpath\.a_lt_b\$in0\[12\]
*494 dpath\.a_lt_b\$in0\[13\]
*495 dpath\.a_lt_b\$in0\[14\]
*496 dpath\.a_lt_b\$in0\[15\]
*497 dpath\.a_lt_b\$in0\[1\]
*498 dpath\.a_lt_b\$in0\[2\]
*499 dpath\.a_lt_b\$in0\[3\]
*500 dpath\.a_lt_b\$in0\[4\]
*501 dpath\.a_lt_b\$in0\[5\]
*502 dpath\.a_lt_b\$in0\[6\]
*503 dpath\.a_lt_b\$in0\[7\]
*504 dpath\.a_lt_b\$in0\[8\]
*505 dpath\.a_lt_b\$in0\[9\]
*506 dpath\.a_lt_b\$in1\[0\]
*507 dpath\.a_lt_b\$in1\[10\]
*508 dpath\.a_lt_b\$in1\[11\]
*509 dpath\.a_lt_b\$in1\[12\]
*510 dpath\.a_lt_b\$in1\[13\]
*511 dpath\.a_lt_b\$in1\[14\]
*512 dpath\.a_lt_b\$in1\[15\]
*513 dpath\.a_lt_b\$in1\[1\]
*514 dpath\.a_lt_b\$in1\[2\]
*515 dpath\.a_lt_b\$in1\[3\]
*516 dpath\.a_lt_b\$in1\[4\]
*517 dpath\.a_lt_b\$in1\[5\]
*518 dpath\.a_lt_b\$in1\[6\]
*519 dpath\.a_lt_b\$in1\[7\]
*520 dpath\.a_lt_b\$in1\[8\]
*521 dpath\.a_lt_b\$in1\[9\]
*522 req_msg[0]
*523 req_msg[10]
*524 req_msg[11]
*525 req_msg[12]
*526 req_msg[13]
*527 req_msg[14]
*528 req_msg[15]
*529 req_msg[16]
*530 req_msg[17]
*531 req_msg[18]
*532 req_msg[19]
*533 req_msg[1]
*534 req_msg[20]
*535 req_msg[21]
*536 req_msg[22]
*537 req_msg[23]
*538 req_msg[24]
*539 req_msg[25]
*540 req_msg[26]
*541 req_msg[27]
*542 req_msg[28]
*543 req_msg[29]
*544 req_msg[2]
*545 req_msg[30]
*546 req_msg[31]
*547 req_msg[3]
*548 req_msg[4]
*549 req_msg[5]
*550 req_msg[6]
*551 req_msg[7]
*552 req_msg[8]
*553 req_msg[9]
*554 net36
*555 req_val
*556 reset
*557 net37
*558 net38
*559 net39
*560 net40
*561 net41
*562 net42
*563 net43
*564 net44
*565 net45
*566 net46
*567 net47
*568 net48
*569 net49
*570 net50
*571 net51
*572 net52
*573 resp_rdy
*574 net53
*577 net1
*578 net2
*579 net3
*580 net4
*581 net5
*582 net6
*583 net7
*584 net8
*585 net9
*586 net10
*587 net11
*588 net12
*589 net13
*590 net14
*591 net15
*592 net16
*593 net17
*594 net18
*595 net19
*596 net20
*597 net21
*598 net22
*599 net23
*600 net24
*601 net25
*602 net26
*603 net27
*604 net28
*605 net29
*606 net30
*607 net31
*608 net32
*609 net33
*610 net34
*611 net35
*612 req_rdy
*613 resp_msg[0]
*614 resp_msg[10]
*615 resp_msg[11]
*616 resp_msg[12]
*617 resp_msg[13]
*618 resp_msg[14]
*619 resp_msg[15]
*620 resp_msg[1]
*621 resp_msg[2]
*622 resp_msg[3]
*623 resp_msg[4]
*624 resp_msg[5]
*625 resp_msg[6]
*626 resp_msg[7]
*627 resp_msg[8]
*628 resp_msg[9]
*629 resp_val
*630 clknet_0_clk
*631 clknet_2_0__leaf_clk
*632 clknet_2_1__leaf_clk
*633 clknet_2_2__leaf_clk
*634 clknet_2_3__leaf_clk
*635 net54
*636 net55
*637 net56
*638 net57
*639 net58
*640 net59
*641 net60
*642 net61
*643 net62
*644 net63
*645 net64
*646 net65
*647 net66
*648 net111
*649 net110
*650 net109
*651 net70
*652 net71
*653 net72
*654 net73
*655 net74
*656 net75
*657 net76
*658 net77
*659 net78
*660 net79
*661 net80
*662 net81
*663 net82
*664 net83
*665 net85
*666 net86
*667 net87
*668 net88
*669 net89
*670 net90
*671 net91
*672 net92
*673 net93
*674 net96
*675 net97
*676 net98
*677 net100
*678 net102
*679 net103
*680 net107
*681 net108
*682 net84
*683 net94
*684 net95
*685 net101
*686 net104
*687 net112
*688 net117
*689 net118
*690 _486_
*691 _487_
*692 _488_
*693 _489_
*694 _490_
*695 _491_
*696 _492_
*697 _493_
*698 _494_
*699 _495_
*700 _496_
*701 _497_
*702 _498_
*703 _499_
*704 _500_
*705 _501_
*706 _502_
*707 _503_
*708 _504_
*709 _505_
*710 _506_
*711 _507_
*712 _508_
*713 _509_
*714 _510_
*715 _511_
*716 _512_
*717 _513_
*718 _514_
*719 _515_
*720 _516_
*721 _517_
*722 _518_
*723 _519_
*724 _520_
*725 _521_
*726 _522_
*727 _523_
*728 _524_
*729 _525_
*730 rebuffer53
*731 _527_
*732 _528_
*733 _529_
*734 _530_
*735 _531_
*736 _532_
*737 _533_
*738 _534_
*739 _535_
*740 _536_
*741 _537_
*742 _538_
*743 _539_
*744 _540_
*745 _541_
*746 _542_
*747 _543_
*748 _544_
*749 _545_
*750 _546_
*751 _547_
*752 _548_
*753 _549_
*754 _550_
*755 _551_
*756 _552_
*757 _553_
*758 _554_
*759 _555_
*760 _556_
*761 _557_
*762 _558_
*763 _559_
*764 _560_
*765 _561_
*766 _562_
*767 _563_
*768 _564_
*769 _565_
*770 _566_
*771 _567_
*772 _568_
*773 _569_
*774 _570_
*775 _571_
*776 _572_
*777 _573_
*778 _574_
*779 _575_
*780 _576_
*781 _577_
*782 _578_
*783 _579_
*784 _580_
*785 _581_
*786 _582_
*787 _583_
*788 _584_
*789 _585_
*790 _586_
*791 _587_
*792 _588_
*793 _589_
*794 _590_
*795 _591_
*796 _592_
*797 _593_
*798 _594_
*799 _595_
*800 _596_
*801 _597_
*802 _598_
*803 _599_
*804 _600_
*805 _601_
*806 _602_
*807 _603_
*808 _604_
*809 _605_
*810 _606_
*811 _607_
*812 _608_
*813 _609_
*814 _610_
*815 _611_
*816 _612_
*817 _613_
*818 _614_
*819 _615_
*820 _616_
*821 _617_
*822 _618_
*823 _619_
*824 _620_
*825 _621_
*826 _622_
*827 _623_
*828 _624_
*829 _625_
*830 _626_
*831 _627_
*832 _628_
*833 _629_
*834 _630_
*835 _631_
*836 _632_
*837 _633_
*838 _634_
*839 _635_
*840 _636_
*841 _637_
*842 _638_
*843 _639_
*844 _640_
*845 _641_
*846 _642_
*847 _643_
*848 _644_
*849 _645_
*850 _646_
*851 _647_
*852 _648_
*853 _649_
*854 _650_
*855 _651_
*856 _652_
*857 _653_
*858 _654_
*859 _655_
*860 _656_
*861 _657_
*862 _658_
*863 _659_
*864 _660_
*865 _661_
*866 _662_
*867 _663_
*868 _664_
*869 _665_
*870 _666_
*871 _667_
*872 _668_
*873 _669_
*874 _670_
*875 _671_
*876 _672_
*877 _673_
*878 _674_
*879 _675_
*880 _676_
*881 _677_
*882 _678_
*883 _679_
*884 _680_
*885 _681_
*886 _682_
*887 _683_
*888 _684_
*889 _685_
*890 _686_
*891 _687_
*892 _688_
*893 _689_
*894 _690_
*895 _691_
*896 _692_
*897 _693_
*898 _694_
*899 _695_
*900 _696_
*901 _697_
*902 _698_
*903 _699_
*904 _700_
*905 _701_
*906 _702_
*907 _703_
*908 _704_
*909 _705_
*910 _706_
*911 _707_
*912 _708_
*913 _709_
*914 _710_
*915 _711_
*916 _712_
*917 _713_
*918 _714_
*919 _715_
*920 _716_
*921 _717_
*922 _718_
*923 _719_
*924 _720_
*925 _721_
*926 _722_
*927 _723_
*928 _724_
*929 _725_
*930 _726_
*931 _727_
*932 _728_
*933 _729_
*934 _730_
*935 _731_
*936 _732_
*937 _733_
*938 _734_
*939 _735_
*940 _736_
*941 _737_
*942 _738_
*943 _739_
*944 _740_
*945 _741_
*946 _742_
*947 _743_
*948 _744_
*949 _745_
*950 _746_
*951 _747_
*952 _748_
*953 _749_
*954 _750_
*955 _751_
*956 _752_
*957 _753_
*958 _754_
*959 _755_
*960 _756_
*961 _757_
*962 _758_
*963 _759_
*964 _760_
*965 _761_
*966 _762_
*967 _763_
*968 _764_
*969 _765_
*970 _766_
*971 _767_
*972 _768_
*973 _769_
*974 _770_
*975 _771_
*976 _772_
*977 _773_
*978 _774_
*979 _775_
*980 _776_
*981 _777_
*982 _778_
*983 _779_
*984 _780_
*985 _781_
*986 _782_
*987 _783_
*988 _784_
*989 _785_
*990 _786_
*991 _787_
*992 _788_
*993 _789_
*994 _790_
*995 _791_
*996 _792_
*997 _793_
*998 _794_
*999 _795_
*1000 _796_
*1001 _797_
*1002 _798_
*1003 _799_
*1004 _800_
*1005 _801_
*1006 _802_
*1007 _803_
*1008 _804_
*1009 _805_
*1010 _806_
*1011 _807_
*1012 _808_
*1013 _809_
*1014 _810_
*1015 _811_
*1016 _812_
*1017 _813_
*1018 _814_
*1019 _815_
*1020 _816_
*1021 _817_
*1022 _818_
*1023 _819_
*1024 _820_
*1025 _821_
*1026 _822_
*1027 _823_
*1028 _824_
*1029 _825_
*1030 _826_
*1031 _827_
*1032 _828_
*1033 _829_
*1034 _830_
*1035 _831_
*1036 _832_
*1037 _833_
*1038 _834_
*1039 _835_
*1040 _836_
*1041 _837_
*1042 _838_
*1043 _839_
*1044 _840_
*1045 _841_
*1046 _842_
*1047 _843_
*1048 _844_
*1049 _845_
*1050 _846_
*1051 _847_
*1052 _848_
*1053 _849_
*1054 _850_
*1055 _851_
*1056 _852_
*1057 _853_
*1058 _854_
*1059 _855_
*1060 _856_
*1061 _857_
*1062 _858_
*1063 _859_
*1064 _860_
*1065 _861_
*1066 _862_
*1067 _863_
*1068 _864_
*1069 _865_
*1070 _866_
*1071 _867_
*1072 _868_
*1073 _869_
*1074 _870_
*1075 _871_
*1076 _872_
*1077 _873_
*1078 _874_
*1079 _875_
*1080 _876_
*1081 _877_
*1082 _878_
*1083 _879_
*1084 _880_
*1085 _881_
*1086 _882_
*1087 _883_
*1088 _884_
*1089 _885_
*1090 _886_
*1091 _887_
*1092 _888_
*1093 _889_
*1094 _890_
*1095 _891_
*1096 _892_
*1097 _893_
*1098 _894_
*1099 _895_
*1100 _896_
*1101 _897_
*1102 _898_
*1103 _899_
*1104 _900_
*1105 _901_
*1106 _902_
*1107 _903_
*1108 _904_
*1109 _905_
*1110 _906_
*1111 _907_
*1112 _908_
*1113 _909_
*1114 _910_
*1115 _911_
*1116 _912_
*1117 _913_
*1118 _914_
*1119 _915_
*1120 _916_
*1121 _917_
*1122 _918_
*1123 _919_
*1124 _920_
*1125 _921_
*1126 _922_
*1127 _923_
*1128 _924_
*1129 _925_
*1130 _926_
*1131 _927_
*1132 _928_
*1133 _929_
*1134 _930_
*1135 _931_
*1136 _932_
*1137 _933_
*1138 _934_
*1139 _935_
*1140 _936_
*1141 _937_
*1142 _938_
*1143 _939_
*1144 _940_
*1145 _941_
*1146 _942_
*1147 _943_
*1148 _944_
*1149 _945_
*1150 _946_
*1151 _947_
*1152 _948_
*1153 _949_
*1154 _950_
*1155 _951_
*1156 _952_
*1157 _953_
*1158 ctrl\.state\.out\[0\]\$_DFF_P_
*1159 ctrl\.state\.out\[1\]\$_DFF_P_
*1160 ctrl\.state\.out\[2\]\$_DFF_P_
*1161 dpath\.a_reg\.out\[0\]\$_DFFE_PP_
*1162 dpath\.a_reg\.out\[10\]\$_DFFE_PP_
*1163 dpath\.a_reg\.out\[11\]\$_DFFE_PP_
*1164 dpath\.a_reg\.out\[12\]\$_DFFE_PP_
*1165 dpath\.a_reg\.out\[13\]\$_DFFE_PP_
*1166 dpath\.a_reg\.out\[14\]\$_DFFE_PP_
*1167 dpath\.a_reg\.out\[15\]\$_DFFE_PP_
*1168 dpath\.a_reg\.out\[1\]\$_DFFE_PP_
*1169 dpath\.a_reg\.out\[2\]\$_DFFE_PP_
*1170 dpath\.a_reg\.out\[3\]\$_DFFE_PP_
*1171 dpath\.a_reg\.out\[4\]\$_DFFE_PP_
*1172 dpath\.a_reg\.out\[5\]\$_DFFE_PP_
*1173 dpath\.a_reg\.out\[6\]\$_DFFE_PP_
*1174 dpath\.a_reg\.out\[7\]\$_DFFE_PP_
*1175 dpath\.a_reg\.out\[8\]\$_DFFE_PP_
*1176 dpath\.a_reg\.out\[9\]\$_DFFE_PP_
*1177 dpath\.b_reg\.out\[0\]\$_DFFE_PP_
*1178 dpath\.b_reg\.out\[10\]\$_DFFE_PP_
*1179 dpath\.b_reg\.out\[11\]\$_DFFE_PP_
*1180 dpath\.b_reg\.out\[12\]\$_DFFE_PP_
*1181 dpath\.b_reg\.out\[13\]\$_DFFE_PP_
*1182 dpath\.b_reg\.out\[14\]\$_DFFE_PP_
*1183 dpath\.b_reg\.out\[15\]\$_DFFE_PP_
*1184 dpath\.b_reg\.out\[1\]\$_DFFE_PP_
*1185 dpath\.b_reg\.out\[2\]\$_DFFE_PP_
*1186 dpath\.b_reg\.out\[3\]\$_DFFE_PP_
*1187 dpath\.b_reg\.out\[4\]\$_DFFE_PP_
*1188 dpath\.b_reg\.out\[5\]\$_DFFE_PP_
*1189 dpath\.b_reg\.out\[6\]\$_DFFE_PP_
*1190 dpath\.b_reg\.out\[7\]\$_DFFE_PP_
*1191 dpath\.b_reg\.out\[8\]\$_DFFE_PP_
*1192 dpath\.b_reg\.out\[9\]\$_DFFE_PP_
*1193 PHY_EDGE_ROW_0_Right_0
*1194 PHY_EDGE_ROW_1_Right_1
*1195 PHY_EDGE_ROW_2_Right_2
*1196 PHY_EDGE_ROW_3_Right_3
*1197 PHY_EDGE_ROW_4_Right_4
*1198 PHY_EDGE_ROW_5_Right_5
*1199 PHY_EDGE_ROW_6_Right_6
*1200 PHY_EDGE_ROW_7_Right_7
*1201 PHY_EDGE_ROW_8_Right_8
*1202 PHY_EDGE_ROW_9_Right_9
*1203 PHY_EDGE_ROW_10_Right_10
*1204 PHY_EDGE_ROW_11_Right_11
*1205 PHY_EDGE_ROW_12_Right_12
*1206 PHY_EDGE_ROW_13_Right_13
*1207 PHY_EDGE_ROW_14_Right_14
*1208 PHY_EDGE_ROW_15_Right_15
*1209 PHY_EDGE_ROW_16_Right_16
*1210 PHY_EDGE_ROW_17_Right_17
*1211 PHY_EDGE_ROW_18_Right_18
*1212 PHY_EDGE_ROW_19_Right_19
*1213 PHY_EDGE_ROW_20_Right_20
*1214 PHY_EDGE_ROW_21_Right_21
*1215 PHY_EDGE_ROW_22_Right_22
*1216 PHY_EDGE_ROW_23_Right_23
*1217 PHY_EDGE_ROW_24_Right_24
*1218 PHY_EDGE_ROW_25_Right_25
*1219 PHY_EDGE_ROW_26_Right_26
*1220 PHY_EDGE_ROW_27_Right_27
*1221 PHY_EDGE_ROW_0_Left_28
*1222 PHY_EDGE_ROW_1_Left_29
*1223 PHY_EDGE_ROW_2_Left_30
*1224 PHY_EDGE_ROW_3_Left_31
*1225 PHY_EDGE_ROW_4_Left_32
*1226 PHY_EDGE_ROW_5_Left_33
*1227 PHY_EDGE_ROW_6_Left_34
*1228 PHY_EDGE_ROW_7_Left_35
*1229 PHY_EDGE_ROW_8_Left_36
*1230 PHY_EDGE_ROW_9_Left_37
*1231 PHY_EDGE_ROW_10_Left_38
*1232 PHY_EDGE_ROW_11_Left_39
*1233 PHY_EDGE_ROW_12_Left_40
*1234 PHY_EDGE_ROW_13_Left_41
*1235 PHY_EDGE_ROW_14_Left_42
*1236 PHY_EDGE_ROW_15_Left_43
*1237 PHY_EDGE_ROW_16_Left_44
*1238 PHY_EDGE_ROW_17_Left_45
*1239 PHY_EDGE_ROW_18_Left_46
*1240 PHY_EDGE_ROW_19_Left_47
*1241 PHY_EDGE_ROW_20_Left_48
*1242 PHY_EDGE_ROW_21_Left_49
*1243 PHY_EDGE_ROW_22_Left_50
*1244 PHY_EDGE_ROW_23_Left_51
*1245 PHY_EDGE_ROW_24_Left_52
*1246 PHY_EDGE_ROW_25_Left_53
*1247 PHY_EDGE_ROW_26_Left_54
*1248 PHY_EDGE_ROW_27_Left_55
*1249 input1
*1250 input2
*1251 input3
*1252 input4
*1253 input5
*1254 input6
*1255 input7
*1256 input8
*1257 input9
*1258 input10
*1259 input11
*1260 input12
*1261 input13
*1262 input14
*1263 input15
*1264 input16
*1265 input17
*1266 input18
*1267 input19
*1268 input20
*1269 input21
*1270 input22
*1271 input23
*1272 input24
*1273 input25
*1274 input26
*1275 input27
*1276 input28
*1277 input29
*1278 input30
*1279 input31
*1280 input32
*1281 input33
*1282 input34
*1283 input35
*1284 output36
*1285 output37
*1286 output38
*1287 output39
*1288 output40
*1289 output41
*1290 output42
*1291 output43
*1292 output44
*1293 output45
*1294 output46
*1295 output47
*1296 output48
*1297 output49
*1298 output50
*1299 output51
*1300 output52
*1301 output53
*1302 clkbuf_0_clk
*1303 clkbuf_2_0__f_clk
*1304 clkbuf_2_1__f_clk
*1305 clkbuf_2_2__f_clk
*1306 clkbuf_2_3__f_clk
*1307 clkload0
*1308 clkload1
*1309 clkload2
*1310 rebuffer1
*1311 rebuffer2
*1312 rebuffer3
*1313 rebuffer4
*1314 rebuffer5
*1315 rebuffer6
*1316 rebuffer7
*1317 rebuffer8
*1318 rebuffer9
*1319 rebuffer10
*1320 rebuffer11
*1321 rebuffer12
*1322 rebuffer13
*1323 rebuffer58
*1324 rebuffer57
*1325 rebuffer56
*1326 rebuffer17
*1327 rebuffer18
*1328 rebuffer19
*1329 rebuffer20
*1330 rebuffer21
*1331 rebuffer22
*1332 rebuffer23
*1333 rebuffer24
*1334 rebuffer25
*1335 rebuffer26
*1336 rebuffer27
*1337 rebuffer28
*1338 rebuffer29
*1339 rebuffer30
*1340 rebuffer32
*1341 rebuffer33
*1342 rebuffer34
*1343 rebuffer35
*1344 rebuffer36
*1345 rebuffer37
*1346 rebuffer38
*1347 rebuffer39
*1348 rebuffer40
*1349 rebuffer43
*1350 rebuffer44
*1351 rebuffer45
*1352 rebuffer47
*1353 rebuffer49
*1354 rebuffer50
*1355 rebuffer54
*1356 rebuffer55
*1357 rebuffer31
*1358 rebuffer41
*1359 rebuffer42
*1360 rebuffer48
*1361 rebuffer51
*1362 clone59
*1363 clone64
*1364 clone65
*1365 FILLER_0_1
*1366 FILLER_0_33
*1367 FILLER_0_41
*1368 FILLER_0_45
*1369 FILLER_0_47
*1370 FILLER_0_51
*1371 FILLER_0_67
*1372 FILLER_0_77
*1373 FILLER_0_79
*1374 FILLER_0_83
*1375 FILLER_0_104
*1376 FILLER_0_106
*1377 FILLER_0_113
*1378 FILLER_0_120
*1379 FILLER_0_122
*1380 FILLER_0_126
*1381 FILLER_0_128
*1382 FILLER_0_132
*1383 FILLER_0_136
*1384 FILLER_0_144
*1385 FILLER_0_148
*1386 FILLER_0_161
*1387 FILLER_0_193
*1388 FILLER_0_209
*1389 FILLER_1_1
*1390 FILLER_1_33
*1391 FILLER_1_41
*1392 FILLER_1_45
*1393 FILLER_1_47
*1394 FILLER_1_65
*1395 FILLER_1_69
*1396 FILLER_1_114
*1397 FILLER_1_132
*1398 FILLER_1_159
*1399 FILLER_1_191
*1400 FILLER_1_207
*1401 FILLER_1_209
*1402 FILLER_2_1
*1403 FILLER_2_33
*1404 FILLER_2_41
*1405 FILLER_2_57
*1406 FILLER_2_62
*1407 FILLER_2_64
*1408 FILLER_2_68
*1409 FILLER_2_72
*1410 FILLER_2_81
*1411 FILLER_2_89
*1412 FILLER_2_93
*1413 FILLER_2_101
*1414 FILLER_2_109
*1415 FILLER_2_152
*1416 FILLER_2_172
*1417 FILLER_2_204
*1418 FILLER_2_208
*1419 FILLER_3_1
*1420 FILLER_3_33
*1421 FILLER_3_39
*1422 FILLER_3_44
*1423 FILLER_3_50
*1424 FILLER_3_68
*1425 FILLER_3_86
*1426 FILLER_3_95
*1427 FILLER_3_99
*1428 FILLER_3_104
*1429 FILLER_3_108
*1430 FILLER_3_110
*1431 FILLER_3_125
*1432 FILLER_3_147
*1433 FILLER_3_176
*1434 FILLER_3_208
*1435 FILLER_4_1
*1436 FILLER_4_17
*1437 FILLER_4_45
*1438 FILLER_4_49
*1439 FILLER_4_67
*1440 FILLER_4_75
*1441 FILLER_4_100
*1442 FILLER_4_147
*1443 FILLER_4_186
*1444 FILLER_4_202
*1445 FILLER_5_1
*1446 FILLER_5_17
*1447 FILLER_5_24
*1448 FILLER_5_40
*1449 FILLER_5_71
*1450 FILLER_5_76
*1451 FILLER_5_80
*1452 FILLER_5_86
*1453 FILLER_5_96
*1454 FILLER_5_100
*1455 FILLER_5_105
*1456 FILLER_5_112
*1457 FILLER_5_193
*1458 FILLER_5_209
*1459 FILLER_6_1
*1460 FILLER_6_17
*1461 FILLER_6_21
*1462 FILLER_6_23
*1463 FILLER_6_27
*1464 FILLER_6_43
*1465 FILLER_6_48
*1466 FILLER_6_80
*1467 FILLER_6_88
*1468 FILLER_6_92
*1469 FILLER_6_96
*1470 FILLER_6_100
*1471 FILLER_6_102
*1472 FILLER_6_121
*1473 FILLER_6_144
*1474 FILLER_6_195
*1475 FILLER_6_203
*1476 FILLER_6_207
*1477 FILLER_6_209
*1478 FILLER_7_1
*1479 FILLER_7_33
*1480 FILLER_7_47
*1481 FILLER_7_72
*1482 FILLER_7_80
*1483 FILLER_7_105
*1484 FILLER_7_109
*1485 FILLER_7_130
*1486 FILLER_7_149
*1487 FILLER_7_198
*1488 FILLER_7_206
*1489 FILLER_8_1
*1490 FILLER_8_21
*1491 FILLER_8_25
*1492 FILLER_8_27
*1493 FILLER_8_33
*1494 FILLER_8_35
*1495 FILLER_8_41
*1496 FILLER_8_49
*1497 FILLER_8_63
*1498 FILLER_8_85
*1499 FILLER_8_99
*1500 FILLER_8_107
*1501 FILLER_8_128
*1502 FILLER_8_162
*1503 FILLER_8_197
*1504 FILLER_8_205
*1505 FILLER_8_209
*1506 FILLER_9_7
*1507 FILLER_9_15
*1508 FILLER_9_23
*1509 FILLER_9_40
*1510 FILLER_9_48
*1511 FILLER_9_188
*1512 FILLER_10_5
*1513 FILLER_10_14
*1514 FILLER_10_38
*1515 FILLER_10_46
*1516 FILLER_10_50
*1517 FILLER_10_63
*1518 FILLER_10_67
*1519 FILLER_10_71
*1520 FILLER_10_87
*1521 FILLER_10_91
*1522 FILLER_10_159
*1523 FILLER_10_189
*1524 FILLER_10_194
*1525 FILLER_11_15
*1526 FILLER_11_17
*1527 FILLER_11_26
*1528 FILLER_11_42
*1529 FILLER_11_50
*1530 FILLER_11_52
*1531 FILLER_11_78
*1532 FILLER_11_82
*1533 FILLER_11_84
*1534 FILLER_11_94
*1535 FILLER_11_96
*1536 FILLER_11_194
*1537 FILLER_11_201
*1538 FILLER_11_203
*1539 FILLER_11_207
*1540 FILLER_11_209
*1541 FILLER_12_1
*1542 FILLER_12_3
*1543 FILLER_12_21
*1544 FILLER_12_29
*1545 FILLER_12_39
*1546 FILLER_12_43
*1547 FILLER_12_45
*1548 FILLER_12_48
*1549 FILLER_12_59
*1550 FILLER_12_73
*1551 FILLER_12_75
*1552 FILLER_12_85
*1553 FILLER_12_208
*1554 FILLER_13_1
*1555 FILLER_13_17
*1556 FILLER_13_25
*1557 FILLER_13_29
*1558 FILLER_13_34
*1559 FILLER_13_38
*1560 FILLER_13_53
*1561 FILLER_13_82
*1562 FILLER_13_91
*1563 FILLER_13_170
*1564 FILLER_13_181
*1565 FILLER_13_195
*1566 FILLER_13_203
*1567 FILLER_13_207
*1568 FILLER_13_209
*1569 FILLER_14_1
*1570 FILLER_14_6
*1571 FILLER_14_22
*1572 FILLER_14_55
*1573 FILLER_14_67
*1574 FILLER_14_135
*1575 FILLER_14_153
*1576 FILLER_14_187
*1577 FILLER_14_203
*1578 FILLER_14_207
*1579 FILLER_14_209
*1580 FILLER_15_1
*1581 FILLER_15_17
*1582 FILLER_15_21
*1583 FILLER_15_39
*1584 FILLER_15_44
*1585 FILLER_15_55
*1586 FILLER_15_71
*1587 FILLER_15_75
*1588 FILLER_15_81
*1589 FILLER_15_85
*1590 FILLER_15_122
*1591 FILLER_15_198
*1592 FILLER_15_206
*1593 FILLER_16_1
*1594 FILLER_16_9
*1595 FILLER_16_17
*1596 FILLER_16_25
*1597 FILLER_16_56
*1598 FILLER_16_68
*1599 FILLER_16_74
*1600 FILLER_16_106
*1601 FILLER_16_108
*1602 FILLER_16_119
*1603 FILLER_16_123
*1604 FILLER_16_136
*1605 FILLER_16_161
*1606 FILLER_16_176
*1607 FILLER_16_187
*1608 FILLER_16_203
*1609 FILLER_16_207
*1610 FILLER_16_209
*1611 FILLER_17_1
*1612 FILLER_17_6
*1613 FILLER_17_14
*1614 FILLER_17_36
*1615 FILLER_17_40
*1616 FILLER_17_42
*1617 FILLER_17_59
*1618 FILLER_17_81
*1619 FILLER_17_83
*1620 FILLER_17_108
*1621 FILLER_17_110
*1622 FILLER_17_122
*1623 FILLER_17_129
*1624 FILLER_17_133
*1625 FILLER_17_135
*1626 FILLER_17_141
*1627 FILLER_17_157
*1628 FILLER_17_174
*1629 FILLER_17_206
*1630 FILLER_18_1
*1631 FILLER_18_33
*1632 FILLER_18_53
*1633 FILLER_18_66
*1634 FILLER_18_75
*1635 FILLER_18_84
*1636 FILLER_18_97
*1637 FILLER_18_130
*1638 FILLER_18_150
*1639 FILLER_18_182
*1640 FILLER_18_198
*1641 FILLER_18_206
*1642 FILLER_19_1
*1643 FILLER_19_5
*1644 FILLER_19_9
*1645 FILLER_19_11
*1646 FILLER_19_29
*1647 FILLER_19_34
*1648 FILLER_19_71
*1649 FILLER_19_101
*1650 FILLER_19_105
*1651 FILLER_19_110
*1652 FILLER_19_126
*1653 FILLER_19_130
*1654 FILLER_19_145
*1655 FILLER_19_151
*1656 FILLER_19_183
*1657 FILLER_19_199
*1658 FILLER_19_207
*1659 FILLER_19_209
*1660 FILLER_20_1
*1661 FILLER_20_9
*1662 FILLER_20_13
*1663 FILLER_20_15
*1664 FILLER_20_23
*1665 FILLER_20_63
*1666 FILLER_20_71
*1667 FILLER_20_75
*1668 FILLER_20_77
*1669 FILLER_20_101
*1670 FILLER_20_105
*1671 FILLER_20_110
*1672 FILLER_20_112
*1673 FILLER_20_116
*1674 FILLER_20_121
*1675 FILLER_20_129
*1676 FILLER_20_135
*1677 FILLER_20_139
*1678 FILLER_20_148
*1679 FILLER_20_180
*1680 FILLER_20_196
*1681 FILLER_20_204
*1682 FILLER_20_208
*1683 FILLER_21_1
*1684 FILLER_21_17
*1685 FILLER_21_21
*1686 FILLER_21_25
*1687 FILLER_21_41
*1688 FILLER_21_49
*1689 FILLER_21_55
*1690 FILLER_21_59
*1691 FILLER_21_61
*1692 FILLER_21_65
*1693 FILLER_21_69
*1694 FILLER_21_85
*1695 FILLER_21_89
*1696 FILLER_21_103
*1697 FILLER_21_118
*1698 FILLER_21_120
*1699 FILLER_21_143
*1700 FILLER_21_154
*1701 FILLER_21_186
*1702 FILLER_21_202
*1703 FILLER_22_1
*1704 FILLER_22_17
*1705 FILLER_22_25
*1706 FILLER_22_29
*1707 FILLER_22_70
*1708 FILLER_22_111
*1709 FILLER_22_119
*1710 FILLER_22_124
*1711 FILLER_22_130
*1712 FILLER_22_141
*1713 FILLER_22_169
*1714 FILLER_22_201
*1715 FILLER_22_209
*1716 FILLER_23_1
*1717 FILLER_23_9
*1718 FILLER_23_13
*1719 FILLER_23_17
*1720 FILLER_23_25
*1721 FILLER_23_60
*1722 FILLER_23_101
*1723 FILLER_23_129
*1724 FILLER_23_153
*1725 FILLER_23_185
*1726 FILLER_23_201
*1727 FILLER_23_209
*1728 FILLER_24_1
*1729 FILLER_24_33
*1730 FILLER_24_51
*1731 FILLER_24_59
*1732 FILLER_24_73
*1733 FILLER_24_77
*1734 FILLER_24_79
*1735 FILLER_24_87
*1736 FILLER_24_99
*1737 FILLER_24_105
*1738 FILLER_24_113
*1739 FILLER_24_117
*1740 FILLER_24_119
*1741 FILLER_24_127
*1742 FILLER_24_131
*1743 FILLER_24_133
*1744 FILLER_24_151
*1745 FILLER_24_183
*1746 FILLER_24_199
*1747 FILLER_24_207
*1748 FILLER_24_209
*1749 FILLER_25_1
*1750 FILLER_25_33
*1751 FILLER_25_41
*1752 FILLER_25_92
*1753 FILLER_25_100
*1754 FILLER_25_104
*1755 FILLER_25_135
*1756 FILLER_25_167
*1757 FILLER_25_199
*1758 FILLER_25_207
*1759 FILLER_25_209
*1760 FILLER_26_1
*1761 FILLER_26_33
*1762 FILLER_26_49
*1763 FILLER_26_53
*1764 FILLER_26_55
*1765 FILLER_26_64
*1766 FILLER_26_110
*1767 FILLER_26_124
*1768 FILLER_26_156
*1769 FILLER_26_188
*1770 FILLER_26_204
*1771 FILLER_26_208
*1772 FILLER_27_1
*1773 FILLER_27_33
*1774 FILLER_27_49
*1775 FILLER_27_57
*1776 FILLER_27_61
*1777 FILLER_27_65
*1778 FILLER_27_75
*1779 FILLER_27_77
*1780 FILLER_27_81
*1781 FILLER_27_89
*1782 FILLER_27_93
*1783 FILLER_27_95
*1784 FILLER_27_102
*1785 FILLER_27_104
*1786 FILLER_27_108
*1787 FILLER_27_116
*1788 FILLER_27_118
*1789 FILLER_27_122
*1790 FILLER_27_124
*1791 FILLER_27_131
*1792 FILLER_27_163
*1793 FILLER_27_195
*1794 FILLER_27_203
*1795 FILLER_27_207
*1796 FILLER_27_209

*PORTS
clk I
req_msg[0] I
req_msg[10] I
req_msg[11] I
req_msg[12] I
req_msg[13] I
req_msg[14] I
req_msg[15] I
req_msg[16] I
req_msg[17] I
req_msg[18] I
req_msg[19] I
req_msg[1] I
req_msg[20] I
req_msg[21] I
req_msg[22] I
req_msg[23] I
req_msg[24] I
req_msg[25] I
req_msg[26] I
req_msg[27] I
req_msg[28] I
req_msg[29] I
req_msg[2] I
req_msg[30] I
req_msg[31] I
req_msg[3] I
req_msg[4] I
req_msg[5] I
req_msg[6] I
req_msg[7] I
req_msg[8] I
req_msg[9] I
req_rdy O
req_val I
reset I
resp_msg[0] O
resp_msg[10] O
resp_msg[11] O
resp_msg[12] O
resp_msg[13] O
resp_msg[14] O
resp_msg[15] O
resp_msg[1] O
resp_msg[2] O
resp_msg[3] O
resp_msg[4] O
resp_msg[5] O
resp_msg[6] O
resp_msg[7] O
resp_msg[8] O
resp_msg[9] O
resp_rdy I
resp_val O

*D_NET *1 0.000179208
*CONN
*I *1158:D I *D DFF_X1
*I *725:ZN O *D OAI21_X1
*CAP
1 *1158:D 5.87499e-05
2 *725:ZN 5.87499e-05
3 *1158:D *725:A 3.30471e-05
4 *1158:D *725:B1 4.38135e-06
5 *1158:D *726:A1 1.82068e-05
6 *1158:D *68:43 0
7 *1158:D *554:12 6.07323e-06
*RES
1 *725:ZN *1158:D 17.3571 
*END

*D_NET *2 0.000257703
*CONN
*I *1159:D I *D DFF_X1
*I *728:ZN O *D OAI21_X1
*CAP
1 *1159:D 0.000105433
2 *728:ZN 0.000105433
3 *1159:D *713:A1 3.55407e-06
4 *1159:D *718:A2 8.43215e-07
5 *1159:D *718:B1 2.35328e-05
6 *1159:D *718:B2 2.89448e-07
7 *1159:D *728:B2 8.81096e-06
8 *1159:D *1159:CK 8.41165e-06
9 *1159:D *57:10 1.39485e-06
*RES
1 *728:ZN *1159:D 30.8929 
*END

*D_NET *3 0.000252526
*CONN
*I *1160:D I *D DFF_X1
*I *718:ZN O *D OAI22_X1
*CAP
1 *1160:D 0.000115304
2 *718:ZN 0.000115304
3 *1160:D *721:B2 0
4 *1160:D *1160:CK 1.76547e-05
5 *1160:D *1281:A 4.26314e-06
*RES
1 *718:ZN *1160:D 22.5357 
*END

*D_NET *4 0.000643548
*CONN
*I *839:A2 I *D NAND2_X2
*I *719:A I *D BUF_X4
*I *1158:QN O *D DFF_X1
*CAP
1 *839:A2 3.67195e-05
2 *719:A 6.09993e-06
3 *1158:QN 5.85832e-05
4 *4:8 0.000101403
5 *719:A *1101:B2 7.19036e-06
6 *719:A *403:10 2.52965e-06
7 *839:A2 *839:A1 7.72792e-06
8 *839:A2 *57:10 1.55909e-05
9 *839:A2 *58:12 3.79486e-05
10 *839:A2 *404:34 7.72792e-06
11 *839:A2 *631:94 2.94455e-05
12 *4:8 *58:12 7.10354e-05
13 *4:8 *186:12 4.025e-07
14 *4:8 *554:12 2.99872e-05
15 *4:8 *631:94 0.000231156
*RES
1 *1158:QN *4:8 22.4643 
2 *4:8 *719:A 10.75 
3 *4:8 *839:A2 16.4286 
*END

*D_NET *5 0.000308491
*CONN
*I *1161:D I *D DFF_X1
*I *851:ZN O *D NAND2_X1
*CAP
1 *1161:D 7.6601e-05
2 *851:ZN 7.6601e-05
3 *1161:D *849:A1 0
4 *1161:D *850:B2 2.14856e-06
5 *1161:D *851:A2 1.30494e-05
6 *1161:D *1161:CK 0.000132363
7 *1161:D *68:22 7.72792e-06
*RES
1 *851:ZN *1161:D 30.5 
*END

*D_NET *6 0.000356707
*CONN
*I *1162:D I *D DFF_X1
*I *873:ZN O *D NAND2_X1
*CAP
1 *1162:D 4.93822e-05
2 *873:ZN 4.93822e-05
3 *1162:D *1102:A2 6.98328e-05
4 *1162:D *1163:CK 5.09572e-05
5 *1162:D *632:25 4.7875e-06
6 *1162:D *632:27 0.000132365
*RES