*SPEF "ieee 1481-1999"
*DESIGN "gcd"
*DATE "15:40:09 Friday March 28, 2025"
*VENDOR "The OpenROAD Project"
*PROGRAM "OpenROAD"
*VERSION "v2.0-17941-g7fb347f37"
*DESIGN_FLOW "NAME_SCOPE LOCAL" "PIN_CAP NONE"
*DIVIDER /
*DELIMITER :
*BUS_DELIMITER []
*T_UNIT 1 NS
*C_UNIT 1 PF
*R_UNIT 1 OHM
*L_UNIT 1 HENRY

*NAME_MAP
*1 _000_
*2 _001_
*3 _002_
*4 _003_
*5 _004_
*6 _005_
*7 _006_
*8 _007_
*9 _008_
*10 _009_
*11 _010_
*12 _011_
*13 _012_
*14 _013_
*15 _014_
*16 _015_
*17 _016_
*18 _017_
*19 _018_
*20 _019_
*21 _020_
*22 _021_
*23 _022_
*24 _023_
*25 _024_
*26 _025_
*27 _026_
*28 _027_
*29 _028_
*30 _029_
*31 _030_
*32 _031_
*33 _032_
*34 _033_
*35 _034_
*36 _035_
*37 _036_
*38 _037_
*39 _038_
*40 _039_
*41 _040_
*42 _041_
*43 _042_
*44 _043_
*45 _044_
*46 _045_
*47 _046_
*48 _047_
*49 _048_
*50 _049_
*51 _050_
*52 _051_
*53 _052_
*54 _053_
*55 _054_
*56 _055_
*57 _056_
*58 _057_
*59 _058_
*60 _059_
*61 _060_
*62 _061_
*63 _062_
*64 _063_
*65 _064_
*66 _065_
*67 _066_
*68 _067_
*69 _068_
*70 _069_
*71 _070_
*72 net109
*73 _072_
*74 _073_
*75 _074_
*76 _075_
*77 _076_
*78 _077_
*79 _078_
*80 _079_
*81 _080_
*82 _081_
*83 _082_
*84 _083_
*85 _084_
*86 _085_
*87 _086_
*88 _087_
*89 _088_
*90 _089_
*91 _090_
*92 _091_
*93 _092_
*94 _093_
*95 _094_
*96 _095_
*97 _096_
*98 _097_
*99 _098_
*100 _099_
*101 _100_
*102 _101_
*103 _102_
*104 _103_
*105 _104_
*106 _105_
*107 _106_
*108 _107_
*109 _108_
*110 _109_
*111 _110_
*112 _111_
*113 _112_
*114 _113_
*115 _114_
*116 _115_
*117 _116_
*118 _117_
*119 _118_
*120 _119_
*121 _120_
*122 _121_
*123 _122_
*124 _123_
*125 _124_
*126 _125_
*127 _126_
*128 _127_
*129 _128_
*130 _129_
*131 _130_
*132 _131_
*133 _132_
*134 _133_
*135 _134_
*136 _135_
*137 _136_
*138 _137_
*139 _138_
*140 _139_
*141 _140_
*142 _141_
*143 _142_
*144 _143_
*145 _144_
*146 _145_
*147 _146_
*148 _147_
*149 _148_
*150 _149_
*151 _150_
*152 _151_
*153 _152_
*154 _153_
*155 _154_
*156 _155_
*157 _156_
*158 _157_
*159 _158_
*160 _159_
*161 _160_
*162 _161_
*163 _162_
*164 _163_
*165 _164_
*166 _165_
*167 _166_
*168 _167_
*169 _168_
*170 _169_
*171 _170_
*172 _171_
*173 _172_
*174 _173_
*175 _174_
*176 _175_
*177 _176_
*178 _177_
*179 _178_
*180 _179_
*181 _180_
*182 _181_
*183 _182_
*184 _183_
*185 _184_
*186 _185_
*187 _186_
*188 _187_
*189 _188_
*190 _189_
*191 _190_
*192 _191_
*193 _192_
*194 _193_
*195 _194_
*196 _195_
*197 _196_
*198 _197_
*199 _198_
*200 _199_
*201 _200_
*202 _201_
*203 _202_
*204 _203_
*205 _204_
*206 _205_
*207 _206_
*208 _207_
*209 _208_
*210 _209_
*211 _210_
*212 _211_
*213 _212_
*214 _213_
*215 _214_
*216 _215_
*217 _216_
*218 _217_
*219 _218_
*220 _219_
*221 _220_
*222 _221_
*223 _222_
*224 _223_
*225 _224_
*226 _225_
*227 _226_
*228 _227_
*229 _228_
*230 _229_
*231 _230_
*232 _231_
*233 _232_
*234 _233_
*235 _234_
*236 _235_
*237 _236_
*238 _237_
*239 _238_
*240 _239_
*241 _240_
*242 _241_
*243 _242_
*244 _243_
*245 _244_
*246 _245_
*247 _246_
*248 _247_
*249 _248_
*250 _249_
*251 _250_
*252 _251_
*253 _252_
*254 _253_
*255 _254_
*256 _255_
*257 _256_
*258 _257_
*259 _258_
*260 _259_
*261 _260_
*262 _261_
*263 _262_
*264 _263_
*265 _264_
*266 _265_
*267 _266_
*268 _267_
*269 _268_
*270 _269_
*271 _270_
*272 _271_
*273 _272_
*274 _273_
*275 _274_
*276 _275_
*277 _276_
*278 _277_
*279 _278_
*280 _279_
*281 _280_
*282 _281_
*283 _282_
*284 _283_
*285 _284_
*286 _285_
*287 _286_
*288 _287_
*289 _288_
*290 _289_
*291 _290_
*292 _291_
*293 _292_
*294 _293_
*295 _294_
*296 _295_
*297 _296_
*298 _297_
*299 _298_
*300 _299_
*301 _300_
*302 _301_
*303 _302_
*304 _303_
*305 _304_
*306 _305_
*307 _306_
*308 _307_
*309 _308_
*310 _309_
*311 _310_
*312 _311_
*313 _312_
*314 _313_
*315 _314_
*316 _315_
*317 _316_
*318 _317_
*319 _318_
*320 _319_
*321 _320_
*322 _321_
*323 _322_
*324 _323_
*325 _324_
*326 _325_
*327 _326_
*328 _327_
*329 _328_
*330 _329_
*331 _330_
*332 _331_
*333 _332_
*334 _333_
*335 _334_
*336 _335_
*337 _336_
*338 _337_
*339 _338_
*340 _339_
*341 _340_
*342 _341_
*343 _342_
*344 _343_
*345 _344_
*346 _345_
*347 _346_
*348 _347_
*349 _348_
*350 _349_
*351 _350_
*352 _351_
*353 _352_
*354 _353_
*355 _354_
*356 _355_
*357 _356_
*358 _357_
*359 _358_
*360 _359_
*361 _360_
*362 _361_
*363 _362_
*364 _363_
*365 _364_
*366 _365_
*367 _366_
*368 _367_
*369 _368_
*370 _369_
*371 _370_
*372 _371_
*373 _372_
*374 _373_
*375 _374_
*376 _375_
*377 _376_
*378 _377_
*379 _378_
*380 _379_
*381 _380_
*382 _381_
*383 _382_
*384 _383_
*385 _384_
*386 _385_
*387 _386_
*388 _387_
*389 _388_
*390 _389_
*391 _390_
*392 _391_
*393 _392_
*394 _393_
*395 _394_
*396 _395_
*397 _396_
*398 _397_
*399 _398_
*400 _399_
*401 _400_
*402 _401_
*403 _402_
*404 _403_
*405 _404_
*406 _405_
*407 _406_
*408 _407_
*409 _408_
*410 _409_
*411 _410_
*412 _411_
*413 _412_
*414 _413_
*415 _414_
*416 _415_
*417 _416_
*418 _417_
*419 _418_
*420 _419_
*421 _420_
*422 _421_
*423 _422_
*424 _423_
*425 _424_
*426 _425_
*427 _426_
*428 _427_
*429 _428_
*430 _429_
*431 _430_
*432 _431_
*433 _432_
*434 _433_
*435 _434_
*436 _435_
*437 _436_
*438 _437_
*439 _438_
*440 _439_
*441 _440_
*442 _441_
*443 _442_
*444 _443_
*445 _444_
*446 _445_
*447 _446_
*448 _447_
*449 _448_
*450 _449_
*451 _450_
*452 _451_
*453 _452_
*454 _453_
*455 _454_
*456 _455_
*457 _456_
*458 _457_
*459 _458_
*460 _459_
*461 _460_
*462 _461_
*463 _462_
*464 _463_
*465 _464_
*466 _465_
*467 _466_
*468 _467_
*469 _468_
*470 _469_
*471 _470_
*472 _471_
*473 _472_
*474 _473_
*475 _474_
*476 _475_
*477 _476_
*478 _477_
*479 _478_
*480 _479_
*481 _480_
*482 _481_
*483 _482_
*484 _483_
*485 _484_
*486 _485_
*487 clk
*488 ctrl\.state\.out\[1\]
*489 ctrl\.state\.out\[2\]
*490 dpath\.a_lt_b\$in0\[0\]
*491 dpath\.a_lt_b\$in0\[10\]
*492 dpath\.a_lt_b\$in0\[11\]
*493 dpath\.a_lt_b\$in0\[12\]
*494 dpath\.a_lt_b\$in0\[13\]
*495 dpath\.a_lt_b\$in0\[14\]
*496 dpath\.a_lt_b\$in0\[15\]
*497 dpath\.a_lt_b\$in0\[1\]
*498 dpath\.a_lt_b\$in0\[2\]
*499 dpath\.a_lt_b\$in0\[3\]
*500 dpath\.a_lt_b\$in0\[4\]
*501 dpath\.a_lt_b\$in0\[5\]
*502 dpath\.a_lt_b\$in0\[6\]
*503 dpath\.a_lt_b\$in0\[7\]
*504 dpath\.a_lt_b\$in0\[8\]
*505 dpath\.a_lt_b\$in0\[9\]
*506 dpath\.a_lt_b\$in1\[0\]
*507 dpath\.a_lt_b\$in1\[10\]
*508 dpath\.a_lt_b\$in1\[11\]
*509 dpath\.a_lt_b\$in1\[12\]
*510 dpath\.a_lt_b\$in1\[13\]
*511 dpath\.a_lt_b\$in1\[14\]
*512 dpath\.a_lt_b\$in1\[15\]
*513 dpath\.a_lt_b\$in1\[1\]
*514 dpath\.a_lt_b\$in1\[2\]
*515 dpath\.a_lt_b\$in1\[3\]
*516 dpath\.a_lt_b\$in1\[4\]
*517 dpath\.a_lt_b\$in1\[5\]
*518 dpath\.a_lt_b\$in1\[6\]
*519 dpath\.a_lt_b\$in1\[7\]
*520 dpath\.a_lt_b\$in1\[8\]
*521 dpath\.a_lt_b\$in1\[9\]
*522 req_msg[0]
*523 req_msg[10]
*524 req_msg[11]
*525 req_msg[12]
*526 req_msg[13]
*527 req_msg[14]
*528 req_msg[15]
*529 req_msg[16]
*530 req_msg[17]
*531 req_msg[18]
*532 req_msg[19]
*533 req_msg[1]
*534 req_msg[20]
*535 req_msg[21]
*536 req_msg[22]
*537 req_msg[23]
*538 req_msg[24]
*539 req_msg[25]
*540 req_msg[26]
*541 req_msg[27]
*542 req_msg[28]
*543 req_msg[29]
*544 req_msg[2]
*545 req_msg[30]
*546 req_msg[31]
*547 req_msg[3]
*548 req_msg[4]
*549 req_msg[5]
*550 req_msg[6]
*551 req_msg[7]
*552 req_msg[8]
*553 req_msg[9]
*554 net36
*555 req_val
*556 reset
*557 net37
*558 net38
*559 net39
*560 net40
*561 net41
*562 net42
*563 net43
*564 net44
*565 net45
*566 net46
*567 net47
*568 net48
*569 net49
*570 net50
*571 net51
*572 net52
*573 resp_rdy
*574 net53
*577 net1
*578 net2
*579 net3
*580 net4
*581 net5
*582 net6
*583 net7
*584 net8
*585 net9
*586 net10
*587 net11
*588 net12
*589 net13
*590 net14
*591 net15
*592 net16
*593 net17
*594 net18
*595 net19
*596 net20
*597 net21
*598 net22
*599 net23
*600 net24
*601 net25
*602 net26
*603 net27
*604 net28
*605 net29
*606 net30
*607 net31
*608 net32
*609 net33
*610 net34
*611 net35
*612 req_rdy
*613 resp_msg[0]
*614 resp_msg[10]
*615 resp_msg[11]
*616 resp_msg[12]
*617 resp_msg[13]
*618 resp_msg[14]
*619 resp_msg[15]
*620 resp_msg[1]
*621 resp_msg[2]
*622 resp_msg[3]
*623 resp_msg[4]
*624 resp_msg[5]
*625 resp_msg[6]
*626 resp_msg[7]
*627 resp_msg[8]
*628 resp_msg[9]
*629 resp_val
*630 clknet_0_clk
*631 clknet_2_0__leaf_clk
*632 clknet_2_1__leaf_clk
*633 clknet_2_2__leaf_clk
*634 clknet_2_3__leaf_clk
*635 net54
*636 net55
*637 net56
*638 net57
*639 net58
*640 net59
*641 net60
*642 net61
*643 net62
*644 net63
*645 net64
*646 net82
*647 net83
*648 net84
*649 net85
*650 net86
*651 net87
*652 net88
*653 net89
*654 net90
*655 net91
*656 net92
*657 net93
*658 net98
*659 net108
*660 net110
*661 net111
*662 net114
*663 net115
*664 net65
*665 net66
*666 net78
*667 _486_
*668 _487_
*669 _488_
*670 _489_
*671 _490_
*672 _491_
*673 _492_
*674 _493_
*675 _494_
*676 _495_
*677 _496_
*678 _497_
*679 _498_
*680 _499_
*681 _500_
*682 _501_
*683 _502_
*684 _503_
*685 _504_
*686 _505_
*687 _506_
*688 _507_
*689 _508_
*690 _509_
*691 _510_
*692 _511_
*693 _512_
*694 _513_
*695 _514_
*696 _515_
*697 _516_
*698 _517_
*699 _518_
*700 _519_
*701 _520_
*702 _521_
*703 _522_
*704 _523_
*705 _524_
*706 _525_
*707 rebuffer56
*708 _527_
*709 _528_
*710 _529_
*711 _530_
*712 _531_
*713 _532_
*714 _533_
*715 _534_
*716 _535_
*717 _536_
*718 _537_
*719 _538_
*720 _539_
*721 _540_
*722 _541_
*723 _542_
*724 _543_
*725 _544_
*726 _545_
*727 _546_
*728 _547_
*729 _548_
*730 _549_
*731 _550_
*732 _551_
*733 _552_
*734 _553_
*735 _554_
*736 _555_
*737 _556_
*738 _557_
*739 _558_
*740 _559_
*741 _560_
*742 _561_
*743 _562_
*744 _563_
*745 _564_
*746 _565_
*747 _566_
*748 _567_
*749 _568_
*750 _569_
*751 _570_
*752 _571_
*753 _572_
*754 _573_
*755 _574_
*756 _575_
*757 _576_
*758 _577_
*759 _578_
*760 _579_
*761 _580_
*762 _581_
*763 _582_
*764 _583_
*765 _584_
*766 _585_
*767 _586_
*768 _587_
*769 _588_
*770 _589_
*771 _590_
*772 _591_
*773 _592_
*774 _593_
*775 _594_
*776 _595_
*777 _596_
*778 _597_
*779 _598_
*780 _599_
*781 _600_
*782 _601_
*783 _602_
*784 _603_
*785 _604_
*786 _605_
*787 _606_
*788 _607_
*789 _608_
*790 _609_
*791 _610_
*792 _611_
*793 _612_
*794 _613_
*795 _614_
*796 _615_
*797 _616_
*798 _617_
*799 _618_
*800 _619_
*801 _620_
*802 _621_
*803 _622_
*804 _623_
*805 _624_
*806 _625_
*807 _626_
*808 _627_
*809 _628_
*810 _629_
*811 _630_
*812 _631_
*813 _632_
*814 _633_
*815 _634_
*816 _635_
*817 _636_
*818 _637_
*819 _638_
*820 _639_
*821 _640_
*822 _641_
*823 _642_
*824 _643_
*825 _644_
*826 _645_
*827 _646_
*828 _647_
*829 _648_
*830 _649_
*831 _650_
*832 _651_
*833 _652_
*834 _653_
*835 _654_
*836 _655_
*837 _656_
*838 _657_
*839 _658_
*840 _659_
*841 _660_
*842 _661_
*843 _662_
*844 _663_
*845 _664_
*846 _665_
*847 _666_
*848 _667_
*849 _668_
*850 _669_
*851 _670_
*852 _671_
*853 _672_
*854 _673_
*855 _674_
*856 _675_
*857 _676_
*858 _677_
*859 _678_
*860 _679_
*861 _680_
*862 _681_
*863 _682_
*864 _683_
*865 _684_
*866 _685_
*867 _686_
*868 _687_
*869 _688_
*870 _689_
*871 _690_
*872 _691_
*873 _692_
*874 _693_
*875 _694_
*876 _695_
*877 _696_
*878 _697_
*879 _698_
*880 _699_
*881 _700_
*882 _701_
*883 _702_
*884 _703_
*885 _704_
*886 _705_
*887 _706_
*888 _707_
*889 _708_
*890 _709_
*891 _710_
*892 _711_
*893 _712_
*894 _713_
*895 _714_
*896 _715_
*897 _716_
*898 _717_
*899 _718_
*900 _719_
*901 _720_
*902 _721_
*903 _722_
*904 _723_
*905 _724_
*906 _725_
*907 _726_
*908 _727_
*909 _728_
*910 _729_
*911 _730_
*912 _731_
*913 _732_
*914 _733_
*915 _734_
*916 _735_
*917 _736_
*918 _737_
*919 _738_
*920 _739_
*921 _740_
*922 _741_
*923 _742_
*924 _743_
*925 _744_
*926 _745_
*927 _746_
*928 _747_
*929 _748_
*930 _749_
*931 _750_
*932 _751_
*933 _752_
*934 _753_
*935 _754_
*936 _755_
*937 _756_
*938 _757_
*939 _758_
*940 _759_
*941 _760_
*942 _761_
*943 _762_
*944 _763_
*945 _764_
*946 _765_
*947 _766_
*948 _767_
*949 _768_
*950 _769_
*951 _770_
*952 _771_
*953 _772_
*954 _773_
*955 _774_
*956 _775_
*957 _776_
*958 _777_
*959 _778_
*960 _779_
*961 _780_
*962 _781_
*963 _782_
*964 _783_
*965 _784_
*966 _785_
*967 _786_
*968 _787_
*969 _788_
*970 _789_
*971 _790_
*972 _791_
*973 _792_
*974 _793_
*975 _794_
*976 _795_
*977 _796_
*978 _797_
*979 _798_
*980 _799_
*981 _800_
*982 _801_
*983 _802_
*984 _803_
*985 _804_
*986 _805_
*987 _806_
*988 _807_
*989 _808_
*990 _809_
*991 _810_
*992 _811_
*993 _812_
*994 _813_
*995 _814_
*996 _815_
*997 _816_
*998 _817_
*999 _818_
*1000 _819_
*1001 _820_
*1002 _821_
*1003 _822_
*1004 _823_
*1005 _824_
*1006 _825_
*1007 _826_
*1008 _827_
*1009 _828_
*1010 _829_
*1011 _830_
*1012 _831_
*1013 _832_
*1014 _833_
*1015 _834_
*1016 _835_
*1017 _836_
*1018 _837_
*1019 _838_
*1020 _839_
*1021 _840_
*1022 _841_
*1023 _842_
*1024 _843_
*1025 _844_
*1026 _845_
*1027 _846_
*1028 _847_
*1029 _848_
*1030 _849_
*1031 _850_
*1032 _851_
*1033 _852_
*1034 _853_
*1035 _854_
*1036 _855_
*1037 _856_
*1038 _857_
*1039 _858_
*1040 _859_
*1041 _860_
*1042 _861_
*1043 _862_
*1044 _863_
*1045 _864_
*1046 _865_
*1047 _866_
*1048 _867_
*1049 _868_
*1050 _869_
*1051 _870_
*1052 _871_
*1053 _872_
*1054 _873_
*1055 _874_
*1056 _875_
*1057 _876_
*1058 _877_
*1059 _878_
*1060 _879_
*1061 _880_
*1062 _881_
*1063 _882_
*1064 _883_
*1065 _884_
*1066 _885_
*1067 _886_
*1068 _887_
*1069 _888_
*1070 _889_
*1071 _890_
*1072 _891_
*1073 _892_
*1074 _893_
*1075 _894_
*1076 _895_
*1077 _896_
*1078 _897_
*1079 _898_
*1080 _899_
*1081 _900_
*1082 _901_
*1083 _902_
*1084 _903_
*1085 _904_
*1086 _905_
*1087 _906_
*1088 _907_
*1089 _908_
*1090 _909_
*1091 _910_
*1092 _911_
*1093 _912_
*1094 _913_
*1095 _914_
*1096 _915_
*1097 _916_
*1098 _917_
*1099 _918_
*1100 _919_
*1101 _920_
*1102 _921_
*1103 _922_
*1104 _923_
*1105 _924_
*1106 _925_
*1107 _926_
*1108 _927_
*1109 _928_
*1110 _929_
*1111 _930_
*1112 _931_
*1113 _932_
*1114 _933_
*1115 _934_
*1116 _935_
*1117 _936_
*1118 _937_
*1119 _938_
*1120 _939_
*1121 _940_
*1122 _941_
*1123 _942_
*1124 _943_
*1125 _944_
*1126 _945_
*1127 _946_
*1128 _947_
*1129 _948_
*1130 _949_
*1131 _950_
*1132 _951_
*1133 _952_
*1134 _953_
*1135 ctrl\.state\.out\[0\]\$_DFF_P_
*1136 ctrl\.state\.out\[1\]\$_DFF_P_
*1137 ctrl\.state\.out\[2\]\$_DFF_P_
*1138 dpath\.a_reg\.out\[0\]\$_DFFE_PP_
*1139 dpath\.a_reg\.out\[10\]\$_DFFE_PP_
*1140 dpath\.a_reg\.out\[11\]\$_DFFE_PP_
*1141 dpath\.a_reg\.out\[12\]\$_DFFE_PP_
*1142 dpath\.a_reg\.out\[13\]\$_DFFE_PP_
*1143 dpath\.a_reg\.out\[14\]\$_DFFE_PP_
*1144 dpath\.a_reg\.out\[15\]\$_DFFE_PP_
*1145 dpath\.a_reg\.out\[1\]\$_DFFE_PP_
*1146 dpath\.a_reg\.out\[2\]\$_DFFE_PP_
*1147 dpath\.a_reg\.out\[3\]\$_DFFE_PP_
*1148 dpath\.a_reg\.out\[4\]\$_DFFE_PP_
*1149 dpath\.a_reg\.out\[5\]\$_DFFE_PP_
*1150 dpath\.a_reg\.out\[6\]\$_DFFE_PP_
*1151 dpath\.a_reg\.out\[7\]\$_DFFE_PP_
*1152 dpath\.a_reg\.out\[8\]\$_DFFE_PP_
*1153 dpath\.a_reg\.out\[9\]\$_DFFE_PP_
*1154 dpath\.b_reg\.out\[0\]\$_DFFE_PP_
*1155 dpath\.b_reg\.out\[10\]\$_DFFE_PP_
*1156 dpath\.b_reg\.out\[11\]\$_DFFE_PP_
*1157 dpath\.b_reg\.out\[12\]\$_DFFE_PP_
*1158 dpath\.b_reg\.out\[13\]\$_DFFE_PP_
*1159 dpath\.b_reg\.out\[14\]\$_DFFE_PP_
*1160 dpath\.b_reg\.out\[15\]\$_DFFE_PP_
*1161 dpath\.b_reg\.out\[1\]\$_DFFE_PP_
*1162 dpath\.b_reg\.out\[2\]\$_DFFE_PP_
*1163 dpath\.b_reg\.out\[3\]\$_DFFE_PP_
*1164 dpath\.b_reg\.out\[4\]\$_DFFE_PP_
*1165 dpath\.b_reg\.out\[5\]\$_DFFE_PP_
*1166 dpath\.b_reg\.out\[6\]\$_DFFE_PP_
*1167 dpath\.b_reg\.out\[7\]\$_DFFE_PP_
*1168 dpath\.b_reg\.out\[8\]\$_DFFE_PP_
*1169 dpath\.b_reg\.out\[9\]\$_DFFE_PP_
*1170 PHY_EDGE_ROW_0_Right_0
*1171 PHY_EDGE_ROW_1_Right_1
*1172 PHY_EDGE_ROW_2_Right_2
*1173 PHY_EDGE_ROW_3_Right_3
*1174 PHY_EDGE_ROW_4_Right_4
*1175 PHY_EDGE_ROW_5_Right_5
*1176 PHY_EDGE_ROW_6_Right_6
*1177 PHY_EDGE_ROW_7_Right_7
*1178 PHY_EDGE_ROW_8_Right_8
*1179 PHY_EDGE_ROW_9_Right_9
*1180 PHY_EDGE_ROW_10_Right_10
*1181 PHY_EDGE_ROW_11_Right_11
*1182 PHY_EDGE_ROW_12_Right_12
*1183 PHY_EDGE_ROW_13_Right_13
*1184 PHY_EDGE_ROW_14_Right_14
*1185 PHY_EDGE_ROW_15_Right_15
*1186 PHY_EDGE_ROW_16_Right_16
*1187 PHY_EDGE_ROW_17_Right_17
*1188 PHY_EDGE_ROW_18_Right_18
*1189 PHY_EDGE_ROW_19_Right_19
*1190 PHY_EDGE_ROW_20_Right_20
*1191 PHY_EDGE_ROW_21_Right_21
*1192 PHY_EDGE_ROW_22_Right_22
*1193 PHY_EDGE_ROW_23_Right_23
*1194 PHY_EDGE_ROW_24_Right_24
*1195 PHY_EDGE_ROW_25_Right_25
*1196 PHY_EDGE_ROW_0_Left_26
*1197 PHY_EDGE_ROW_1_Left_27
*1198 PHY_EDGE_ROW_2_Left_28
*1199 PHY_EDGE_ROW_3_Left_29
*1200 PHY_EDGE_ROW_4_Left_30
*1201 PHY_EDGE_ROW_5_Left_31
*1202 PHY_EDGE_ROW_6_Left_32
*1203 PHY_EDGE_ROW_7_Left_33
*1204 PHY_EDGE_ROW_8_Left_34
*1205 PHY_EDGE_ROW_9_Left_35
*1206 PHY_EDGE_ROW_10_Left_36
*1207 PHY_EDGE_ROW_11_Left_37
*1208 PHY_EDGE_ROW_12_Left_38
*1209 PHY_EDGE_ROW_13_Left_39
*1210 PHY_EDGE_ROW_14_Left_40
*1211 PHY_EDGE_ROW_15_Left_41
*1212 PHY_EDGE_ROW_16_Left_42
*1213 PHY_EDGE_ROW_17_Left_43
*1214 PHY_EDGE_ROW_18_Left_44
*1215 PHY_EDGE_ROW_19_Left_45
*1216 PHY_EDGE_ROW_20_Left_46
*1217 PHY_EDGE_ROW_21_Left_47
*1218 PHY_EDGE_ROW_22_Left_48
*1219 PHY_EDGE_ROW_23_Left_49
*1220 PHY_EDGE_ROW_24_Left_50
*1221 PHY_EDGE_ROW_25_Left_51
*1222 input1
*1223 input2
*1224 input3
*1225 input4
*1226 input5
*1227 input6
*1228 input7
*1229 input8
*1230 input9
*1231 input10
*1232 input11
*1233 input12
*1234 input13
*1235 input14
*1236 input15
*1237 input16
*1238 input17
*1239 input18
*1240 input19
*1241 input20
*1242 input21
*1243 input22
*1244 input23
*1245 input24
*1246 input25
*1247 input26
*1248 input27
*1249 input28
*1250 input29
*1251 input30
*1252 input31
*1253 input32
*1254 input33
*1255 input34
*1256 input35
*1257 output36
*1258 output37
*1259 output38
*1260 output39
*1261 output40
*1262 output41
*1263 output42
*1264 output43
*1265 output44
*1266 output45
*1267 output46
*1268 output47
*1269 output48
*1270 output49
*1271 output50
*1272 output51
*1273 output52
*1274 output53
*1275 clkbuf_0_clk
*1276 clkbuf_2_0__f_clk
*1277 clkbuf_2_1__f_clk
*1278 clkbuf_2_2__f_clk
*1279 clkbuf_2_3__f_clk
*1280 clkload0
*1281 clkload1
*1282 clkload2
*1283 rebuffer1
*1284 rebuffer2
*1285 rebuffer3
*1286 rebuffer4
*1287 rebuffer5
*1288 rebuffer6
*1289 rebuffer7
*1290 rebuffer8
*1291 rebuffer9
*1292 rebuffer10
*1293 rebuffer11
*1294 rebuffer29
*1295 rebuffer30
*1296 rebuffer31
*1297 rebuffer32
*1298 rebuffer33
*1299 rebuffer34
*1300 rebuffer35
*1301 rebuffer36
*1302 rebuffer37
*1303 rebuffer38
*1304 rebuffer39
*1305 rebuffer40
*1306 rebuffer45
*1307 rebuffer55
*1308 rebuffer57
*1309 rebuffer58
*1310 rebuffer61
*1311 rebuffer62
*1312 rebuffer12
*1313 rebuffer13
*1314 rebuffer25
*1315 FILLER_0_1
*1316 FILLER_0_33
*1317 FILLER_0_41
*1318 FILLER_0_43
*1319 FILLER_0_47
*1320 FILLER_0_55
*1321 FILLER_0_59
*1322 FILLER_0_67
*1323 FILLER_0_74
*1324 FILLER_0_82
*1325 FILLER_0_95
*1326 FILLER_0_99
*1327 FILLER_0_104
*1328 FILLER_0_106
*1329 FILLER_0_110
*1330 FILLER_0_130
*1331 FILLER_0_134
*1332 FILLER_0_138
*1333 FILLER_0_144
*1334 FILLER_0_160
*1335 FILLER_0_162
*1336 FILLER_0_166
*1337 FILLER_1_1
*1338 FILLER_1_33
*1339 FILLER_1_49
*1340 FILLER_1_70
*1341 FILLER_1_91
*1342 FILLER_1_95
*1343 FILLER_1_103
*1344 FILLER_1_150
*1345 FILLER_1_182
*1346 FILLER_2_1
*1347 FILLER_2_33
*1348 FILLER_2_37
*1349 FILLER_2_55
*1350 FILLER_2_105
*1351 FILLER_2_119
*1352 FILLER_2_127
*1353 FILLER_2_132
*1354 FILLER_2_161
*1355 FILLER_2_193
*1356 FILLER_2_197
*1357 FILLER_3_1
*1358 FILLER_3_33
*1359 FILLER_3_37
*1360 FILLER_3_42
*1361 FILLER_3_53
*1362 FILLER_3_64
*1363 FILLER_3_76
*1364 FILLER_3_98
*1365 FILLER_3_107
*1366 FILLER_3_124
*1367 FILLER_3_176
*1368 FILLER_3_192
*1369 FILLER_3_196
*1370 FILLER_4_1
*1371 FILLER_4_9
*1372 FILLER_4_13
*1373 FILLER_4_18
*1374 FILLER_4_26
*1375 FILLER_4_34
*1376 FILLER_4_50
*1377 FILLER_4_102
*1378 FILLER_4_106
*1379 FILLER_4_158
*1380 FILLER_4_178
*1381 FILLER_4_194
*1382 FILLER_5_1
*1383 FILLER_5_17
*1384 FILLER_5_21
*1385 FILLER_5_39
*1386 FILLER_5_43
*1387 FILLER_5_55
*1388 FILLER_5_94
*1389 FILLER_5_100
*1390 FILLER_5_104
*1391 FILLER_5_128
*1392 FILLER_5_193
*1393 FILLER_5_197
*1394 FILLER_6_4
*1395 FILLER_6_20
*1396 FILLER_6_24
*1397 FILLER_6_29
*1398 FILLER_6_33
*1399 FILLER_6_42
*1400 FILLER_6_61
*1401 FILLER_6_65
*1402 FILLER_6_67
*1403 FILLER_6_73
*1404 FILLER_6_85
*1405 FILLER_6_90
*1406 FILLER_6_94
*1407 FILLER_6_103
*1408 FILLER_6_144
*1409 FILLER_6_193
*1410 FILLER_7_1
*1411 FILLER_7_17
*1412 FILLER_7_25
*1413 FILLER_7_29
*1414 FILLER_7_31
*1415 FILLER_7_49
*1416 FILLER_7_60
*1417 FILLER_7_68
*1418 FILLER_7_70
*1419 FILLER_7_75
*1420 FILLER_7_84
*1421 FILLER_7_92
*1422 FILLER_7_115
*1423 FILLER_7_173
*1424 FILLER_8_1
*1425 FILLER_8_33
*1426 FILLER_8_65
*1427 FILLER_8_70
*1428 FILLER_8_102
*1429 FILLER_8_106
*1430 FILLER_8_126
*1431 FILLER_8_180
*1432 FILLER_8_196
*1433 FILLER_9_1
*1434 FILLER_9_5
*1435 FILLER_9_10
*1436 FILLER_9_14
*1437 FILLER_9_19
*1438 FILLER_9_21
*1439 FILLER_9_51
*1440 FILLER_9_58
*1441 FILLER_9_62
*1442 FILLER_9_64
*1443 FILLER_9_84
*1444 FILLER_9_91
*1445 FILLER_9_99
*1446 FILLER_9_103
*1447 FILLER_9_105
*1448 FILLER_9_113
*1449 FILLER_9_155
*1450 FILLER_9_157
*1451 FILLER_9_180
*1452 FILLER_10_4
*1453 FILLER_10_35
*1454 FILLER_10_43
*1455 FILLER_10_45
*1456 FILLER_10_70
*1457 FILLER_10_78
*1458 FILLER_10_107
*1459 FILLER_10_119
*1460 FILLER_10_159
*1461 FILLER_10_188
*1462 FILLER_10_193
*1463 FILLER_11_1
*1464 FILLER_11_5
*1465 FILLER_11_10
*1466 FILLER_11_15
*1467 FILLER_11_30
*1468 FILLER_11_33
*1469 FILLER_11_41
*1470 FILLER_11_64
*1471 FILLER_11_91
*1472 FILLER_11_99
*1473 FILLER_11_178
*1474 FILLER_11_190
*1475 FILLER_12_1
*1476 FILLER_12_34
*1477 FILLER_12_61
*1478 FILLER_12_65
*1479 FILLER_12_70
*1480 FILLER_12_77
*1481 FILLER_12_81
*1482 FILLER_12_89
*1483 FILLER_12_97
*1484 FILLER_12_166
*1485 FILLER_12_192
*1486 FILLER_12_196
*1487 FILLER_13_1
*1488 FILLER_13_33
*1489 FILLER_13_35
*1490 FILLER_13_91
*1491 FILLER_13_95
*1492 FILLER_13_97
*1493 FILLER_13_101
*1494 FILLER_13_139
*1495 FILLER_13_182
*1496 FILLER_13_196
*1497 FILLER_14_1
*1498 FILLER_14_33
*1499 FILLER_14_37
*1500 FILLER_14_39
*1501 FILLER_14_61
*1502 FILLER_14_67
*1503 FILLER_14_77
*1504 FILLER_14_89
*1505 FILLER_14_93
*1506 FILLER_14_103
*1507 FILLER_14_165
*1508 FILLER_14_191
*1509 FILLER_15_1
*1510 FILLER_15_20
*1511 FILLER_15_24
*1512 FILLER_15_33
*1513 FILLER_15_56
*1514 FILLER_15_71
*1515 FILLER_15_86
*1516 FILLER_15_102
*1517 FILLER_15_104
*1518 FILLER_15_110
*1519 FILLER_15_131
*1520 FILLER_15_179
*1521 FILLER_15_195
*1522 FILLER_15_197
*1523 FILLER_16_4
*1524 FILLER_16_20
*1525 FILLER_16_28
*1526 FILLER_16_53
*1527 FILLER_16_65
*1528 FILLER_16_94
*1529 FILLER_16_98
*1530 FILLER_16_130
*1531 FILLER_16_182
*1532 FILLER_17_1
*1533 FILLER_17_33
*1534 FILLER_17_41
*1535 FILLER_17_45
*1536 FILLER_17_56
*1537 FILLER_17_66
*1538 FILLER_17_77
*1539 FILLER_17_81
*1540 FILLER_17_83
*1541 FILLER_17_97
*1542 FILLER_17_107
*1543 FILLER_17_122
*1544 FILLER_17_130
*1545 FILLER_17_145
*1546 FILLER_17_152
*1547 FILLER_17_154
*1548 FILLER_17_168
*1549 FILLER_17_184
*1550 FILLER_17_192
*1551 FILLER_17_196
*1552 FILLER_18_1
*1553 FILLER_18_17
*1554 FILLER_18_19
*1555 FILLER_18_37
*1556 FILLER_18_84
*1557 FILLER_18_97
*1558 FILLER_18_101
*1559 FILLER_18_105
*1560 FILLER_18_121
*1561 FILLER_18_138
*1562 FILLER_18_156
*1563 FILLER_18_188
*1564 FILLER_18_196
*1565 FILLER_19_1
*1566 FILLER_19_8
*1567 FILLER_19_19
*1568 FILLER_19_27
*1569 FILLER_19_31
*1570 FILLER_19_33
*1571 FILLER_19_45
*1572 FILLER_19_49
*1573 FILLER_19_76
*1574 FILLER_19_78
*1575 FILLER_19_102
*1576 FILLER_19_107
*1577 FILLER_19_116
*1578 FILLER_19_162
*1579 FILLER_19_194
*1580 FILLER_20_1
*1581 FILLER_20_17
*1582 FILLER_20_48
*1583 FILLER_20_52
*1584 FILLER_20_57
*1585 FILLER_20_80
*1586 FILLER_20_84
*1587 FILLER_20_86
*1588 FILLER_20_95
*1589 FILLER_20_99
*1590 FILLER_20_104
*1591 FILLER_20_116
*1592 FILLER_20_123
*1593 FILLER_20_129
*1594 FILLER_20_138
*1595 FILLER_20_147
*1596 FILLER_20_179
*1597 FILLER_20_195
*1598 FILLER_20_197
*1599 FILLER_21_1
*1600 FILLER_21_33
*1601 FILLER_21_41
*1602 FILLER_21_43
*1603 FILLER_21_47
*1604 FILLER_21_77
*1605 FILLER_21_81
*1606 FILLER_21_88
*1607 FILLER_21_92
*1608 FILLER_21_96
*1609 FILLER_21_104
*1610 FILLER_21_106
*1611 FILLER_21_109
*1612 FILLER_21_128
*1613 FILLER_21_133
*1614 FILLER_21_137
*1615 FILLER_21_142
*1616 FILLER_21_146
*1617 FILLER_21_150
*1618 FILLER_21_182
*1619 FILLER_22_1
*1620 FILLER_22_17
*1621 FILLER_22_21
*1622 FILLER_22_29
*1623 FILLER_22_33
*1624 FILLER_22_42
*1625 FILLER_22_46
*1626 FILLER_22_51
*1627 FILLER_22_70
*1628 FILLER_22_84
*1629 FILLER_22_89
*1630 FILLER_22_105
*1631 FILLER_22_114
*1632 FILLER_22_123
*1633 FILLER_22_136
*1634 FILLER_22_138
*1635 FILLER_22_147
*1636 FILLER_22_179
*1637 FILLER_22_195
*1638 FILLER_22_197
*1639 FILLER_23_1
*1640 FILLER_23_17
*1641 FILLER_23_41
*1642 FILLER_23_50
*1643 FILLER_23_54
*1644 FILLER_23_56
*1645 FILLER_23_78
*1646 FILLER_23_94
*1647 FILLER_23_106
*1648 FILLER_23_125
*1649 FILLER_23_131
*1650 FILLER_23_142
*1651 FILLER_23_174
*1652 FILLER_23_190
*1653 FILLER_24_1
*1654 FILLER_24_33
*1655 FILLER_24_52
*1656 FILLER_24_72
*1657 FILLER_24_78
*1658 FILLER_24_97
*1659 FILLER_24_120
*1660 FILLER_24_128
*1661 FILLER_24_151
*1662 FILLER_24_183
*1663 FILLER_24_191
*1664 FILLER_24_195
*1665 FILLER_24_197
*1666 FILLER_25_1
*1667 FILLER_25_33
*1668 FILLER_25_37
*1669 FILLER_25_39
*1670 FILLER_25_43
*1671 FILLER_25_65
*1672 FILLER_25_69
*1673 FILLER_25_77
*1674 FILLER_25_85
*1675 FILLER_25_92
*1676 FILLER_25_100
*1677 FILLER_25_104
*1678 FILLER_25_109
*1679 FILLER_25_116
*1680 FILLER_25_121
*1681 FILLER_25_123
*1682 FILLER_25_127
*1683 FILLER_25_134
*1684 FILLER_25_166

*PORTS
clk I
req_msg[0] I
req_msg[10] I
req_msg[11] I
req_msg[12] I
req_msg[13] I
req_msg[14] I
req_msg[15] I
req_msg[16] I
req_msg[17] I
req_msg[18] I
req_msg[19] I
req_msg[1] I
req_msg[20] I
req_msg[21] I
req_msg[22] I
req_msg[23] I
req_msg[24] I
req_msg[25] I
req_msg[26] I
req_msg[27] I
req_msg[28] I
req_msg[29] I
req_msg[2] I
req_msg[30] I
req_msg[31] I
req_msg[3] I
req_msg[4] I
req_msg[5] I
req_msg[6] I
req_msg[7] I
req_msg[8] I
req_msg[9] I
req_rdy O
req_val I
reset I
resp_msg[0] O
resp_msg[10] O
resp_msg[11] O
resp_msg[12] O
resp_msg[13] O
resp_msg[14] O
resp_msg[15] O
resp_msg[1] O
resp_msg[2] O
resp_msg[3] O
resp_msg[4] O
resp_msg[5] O
resp_msg[6] O
resp_msg[7] O
resp_msg[8] O
resp_msg[9] O
resp_rdy I
resp_val O

*D_NET *1 8.08093e-05
*CONN
*I *1135:D I *D DFF_X1
*I *702:ZN O *D OAI21_X1
*CAP
1 *1135:D 3.73072e-05
2 *702:ZN 3.73072e-05
3 *1135:D *698:B1 1.39839e-06
4 *1135:D *1135:CK 4.79658e-06
*RES
1 *702:ZN *1135:D 13.75 
*END

*D_NET *2 0.000237658
*CONN
*I *1136:D I *D DFF_X1
*I *705:ZN O *D OAI21_X1
*CAP
1 *1136:D 7.28539e-05
2 *705:ZN 7.28539e-05
3 *1136:D resp_val 1.39582e-06
4 *1136:D *698:B2 5.96467e-06
5 *1136:D *1136:CK 2.97137e-05
6 *1136:D *1257:A 2.48889e-05
7 *1136:D *488:8 2.99872e-05
*RES
1 *705:ZN *1136:D 29.75 
*END

*D_NET *3 0.000204736
*CONN
*I *1137:D I *D DFF_X1
*I *695:ZN O *D OAI22_X1
*CAP
1 *1137:D 3.44273e-05
2 *695:ZN 3.44273e-05
3 *1137:D *695:A2 3.19164e-07
4 *1137:D *695:B2 4.80119e-06
5 *1137:D *704:A 6.32202e-06
6 *1137:D *57:14 8.08846e-05
7 *1137:D *68:18 6.48216e-07
8 *1137:D *631:48 4.29063e-05
*RES
1 *695:ZN *1137:D 25.75 
*END

*D_NET *4 0.000373211
*CONN
*I *696:A I *D BUF_X4
*I *816:A2 I *D NAND2_X2
*I *1135:QN O *D DFF_X1
*CAP
1 *696:A 0
2 *816:A2 4.22931e-05
3 *1135:QN 0.000104289
4 *4:10 0.000146582
5 *816:A2 *691:A 0
6 *816:A2 *697:A3 5.50991e-06
7 *816:A2 *816:A1 2.75346e-06
8 *816:A2 *63:145 1.82068e-05
9 *816:A2 *187:90 0
10 *4:10 *694:A1 5.35763e-05
*RES
1 *1135:QN *4:10 28.1429 
2 *4:10 *816:A2 9.75 
3 *4:10 *696:A 5 
*END

*D_NET *5 0.000282511
*CONN
*I *1138:D I *D DFF_X1
*I *828:ZN O *D NAND2_X1
*CAP
1 *1138:D 0.000100536
2 *828:ZN 0.000100536
3 *1138:D *828:A1 3.99776e-05
4 *1138:D *828:A2 2.61469e-06
5 *1138:D *1071:B 0
6 *1138:D *1138:CK 9.18014e-06
7 *1138:D *190:14 2.14728e-06
8 *1138:D *190:86 2.7518e-05
*RES
1 *828:ZN *1138:D 32 
*END

*D_NET *6 8.97751e-05
*CONN
*I *1139:D I *D DFF_X1
*I *850:ZN O *D NAND2_X1
*CAP
1 *1139:D 3.49344e-05
2 *850:ZN 3.49344e-05
3 *1139:D *68:39 1.34605e-05
4 *1139:D *632:107 6.44574e-06
*RES
1 *850:ZN *1139:D 14.1786 
*END

*D_NET *7 0.000507536
*CONN
*I *1140:D I *D DFF_X1
*I *899:ZN O *D NAND2_X1
*CAP
1 *1140:D 0.000139244
2 *899:ZN 0.000139244
3 *1140:D *898:B1 3.31329e-05
4 *1140:D *899:A2 2.79011e-05
5 *1140:D *68:39 5.56848e-05
6 *1140:D *187:101 9.6515e-06
7 *1140:D *580:10 6.52675e-06
8 *1140:D *596:16 2.59664e-05
9 *1140:D *632:18 9.62051e-07
10 *1140:D *632:26 6.92212e-05
*RES
1 *899:ZN *1140:D 39.1429 
*END

*D_NET *8 0.000205355
*CONN
*I *1141:D I *D DFF_X1
*I *919:ZN O *D NAND2_X1
*CAP
1 *1141:D 9.15381e-05
2 *919:ZN 9.15381e-05
3 *1141:D *917:A2 0
4 *1141:D *918:B2 0
5 *1141:D *919:A2 1.60668e-05
6 *1141:D *493:12 6.21255e-06
*RES
1 *919:ZN *1141:D 29.75 
*END

*D_NET *9 0.000291051
*CONN
*I *1142:D I *D DFF_X1
*I *947:ZN O *D NAND2_X1
*CAP
1 *1142:D 7.57586e-05
2 *947:ZN 7.57586e-05
3 *1142:D *1142:CK 5.62244e-05
4 *1142:D *1143:D 1.88334e-06
5 *1142:D *632:35 0
6 *1142:D *632:50 8.14262e-05
*RES
1 *947:ZN *1142:D 30.5 
*END

*D_NET *10 0.000359847
*CONN
*I *1143:D I *D DFF_X1
*I *968:ZN O *D NAND2_X1
*CAP
1 *1143:D 9.613e-05
2 *968:ZN 9.613e-05
3 *1143:D *967:B2 6.44574e-06
4 *1143:D *968:A2 9.44167e-05
5 *1143:D *987:B1 5.39412e-06
6 *1143:D *68:58 1.61002e-06
7 *1143:D *495:31 4.32319e-05
8 *1143:D *632:50 9.55854e-06
9 *1143:D *632:54 5.04693e-06
10 *1142:D *1143:D 1.88334e-06
*RES
1 *968:ZN *1143:D 33 
*END

*D_NET *11 0.000236367
*CONN
*I *1144:D I *D DFF_X2
*I *988:ZN O *D NAND2_X1
*CAP
1 *1144:D 4.81688e-05
2 *988:ZN 4.81688e-05
3 *1144:D *987:B2 6.74758e-05
4 *1144:D *1089:A2 0
5 *1144:D *1157:CK 4.79658e-06
6 *1144:D *495:31 6.77571e-05
*RES
1 *988:ZN *1144:D 26.8929 
*END

*D_NET *12 0.00017294
*CONN
*I *1145:D I *D DFF_X1
*I *996:ZN O *D NAND2_X1
*CAP
1 *1145:D 8.22189e-05
2 *996:ZN 8.22189e-05
3 *1145:D *827:B2 0
4 *1145:D *995:B1 7.65847e-06
5 *1145:D *1145:CK 8.43215e-07
6 *1145:D *497:8 0
*RES
1 *996:ZN *1145:D 28.0714 
*END

*D_NET *13 0.000394513
*CONN
*I *1146:D I *D DFF_X1
*I *1003:ZN O *D NAND2_X1
*CAP
1 *1146:D 0.000143098
2 *1003:ZN 0.000143098
3 *1146:D *994:A1 5.86754e-06
4 *1146:D *995:A 0
5 *1146:D *996:A1 3.99105e-05
6 *1146:D *190:90 5.59226e-06
7 *1146:D *190:105 3.48096e-05
8 *1146:D *497:8 5.44908e-06
9 *1146:D *631:80 1.66884e-05
*RES
1 *1003:ZN *1146:D 38.5 
*END
