*SPEF "ieee 1481-1999"
*DESIGN "gcd"
*DATE "15:03:30 Friday March 28, 2025"
*VENDOR "The OpenROAD Project"
*PROGRAM "OpenROAD"
*VERSION "v2.0-17941-g7fb347f37"
*DESIGN_FLOW "NAME_SCOPE LOCAL" "PIN_CAP NONE"
*DIVIDER /
*DELIMITER :
*BUS_DELIMITER []
*T_UNIT 1 NS
*C_UNIT 1 PF
*R_UNIT 1 OHM
*L_UNIT 1 HENRY

*NAME_MAP
*1 _000_
*2 _001_
*3 _002_
*4 _003_
*5 _004_
*6 _005_
*7 _006_
*8 _007_
*9 _008_
*10 _009_
*11 _010_
*12 _011_
*13 _012_
*14 _013_
*15 _014_
*16 _015_
*17 _016_
*18 _017_
*19 _018_
*20 _019_
*21 _020_
*22 _021_
*23 _022_
*24 _023_
*25 _024_
*26 _025_
*27 _026_
*28 _027_
*29 _028_
*30 _029_
*31 _030_
*32 _031_
*33 _032_
*34 _033_
*35 _034_
*36 _035_
*37 _036_
*38 _037_
*39 _038_
*40 _039_
*41 _040_
*42 _041_
*43 _042_
*44 _043_
*45 _044_
*46 _045_
*47 _046_
*48 _047_
*49 _048_
*50 _049_
*51 _050_
*52 _051_
*53 _052_
*54 _053_
*55 _054_
*56 _055_
*57 _056_
*58 _057_
*59 _058_
*60 _059_
*61 _060_
*62 _061_
*63 _062_
*64 _063_
*65 _064_
*66 _065_
*67 _066_
*68 _067_
*69 _068_
*70 _069_
*71 _070_
*72 _071_
*73 _072_
*74 _073_
*75 _074_
*76 _075_
*77 _076_
*78 _077_
*79 _078_
*80 _079_
*81 _080_
*82 _081_
*83 _082_
*84 _083_
*85 _084_
*86 _085_
*87 _086_
*88 _087_
*89 _088_
*90 _089_
*91 _090_
*92 _091_
*93 _092_
*94 _093_
*95 _094_
*96 _095_
*97 _096_
*98 _097_
*99 _098_
*100 _099_
*101 _100_
*102 _101_
*103 _102_
*104 _103_
*105 _104_
*106 _105_
*107 _106_
*108 _107_
*109 _108_
*110 _109_
*111 _110_
*112 _111_
*113 _112_
*114 _113_
*115 _114_
*116 _115_
*117 _116_
*118 _117_
*119 _118_
*120 _119_
*121 _120_
*122 _121_
*123 _122_
*124 _123_
*125 _124_
*126 _125_
*127 _126_
*128 _127_
*129 _128_
*130 _129_
*131 _130_
*132 _131_
*133 _132_
*134 _133_
*135 _134_
*136 _135_
*137 _136_
*138 _137_
*139 _138_
*140 _139_
*141 _140_
*142 _141_
*143 _142_
*144 _143_
*145 _144_
*146 _145_
*147 _146_
*148 _147_
*149 _148_
*150 _149_
*151 _150_
*152 _151_
*153 _152_
*154 _153_
*155 _154_
*156 _155_
*157 _156_
*158 _157_
*159 _158_
*160 _159_
*161 _160_
*162 _161_
*163 _162_
*164 _163_
*165 _164_
*166 _165_
*167 _166_
*168 _167_
*169 _168_
*170 _169_
*171 _170_
*172 _171_
*173 _172_
*174 _173_
*175 _174_
*176 _175_
*177 _176_
*178 _177_
*179 _178_
*180 _179_
*181 _180_
*182 _181_
*183 _182_
*184 _183_
*185 _184_
*186 _185_
*187 _186_
*188 _187_
*189 _188_
*190 _189_
*191 _190_
*192 _191_
*193 _192_
*194 _193_
*195 _194_
*196 _195_
*197 _196_
*198 _197_
*199 _198_
*200 _199_
*201 _200_
*202 _201_
*203 _202_
*204 _203_
*205 _204_
*206 _205_
*207 _206_
*208 _207_
*209 _208_
*210 _209_
*211 _210_
*212 _211_
*213 _212_
*214 _213_
*215 _214_
*216 _215_
*217 _216_
*218 _217_
*219 _218_
*220 _219_
*221 _220_
*222 _221_
*223 _222_
*224 _223_
*225 _224_
*226 _225_
*227 _226_
*228 _227_
*229 _228_
*230 _229_
*231 _230_
*232 _231_
*233 _232_
*234 _233_
*235 _234_
*236 _235_
*237 _236_
*238 _237_
*239 _238_
*240 _239_
*241 _240_
*242 _241_
*243 _242_
*244 _243_
*245 _244_
*246 _245_
*247 _246_
*248 _247_
*249 _248_
*250 _249_
*251 _250_
*252 _251_
*253 _252_
*254 _253_
*255 _254_
*256 _255_
*257 _256_
*258 _257_
*259 _258_
*260 _259_
*261 _260_
*262 _261_
*263 _262_
*264 _263_
*265 _264_
*266 _265_
*267 _266_
*268 _267_
*269 _268_
*270 _269_
*271 _270_
*272 _271_
*273 _272_
*274 _273_
*275 _274_
*276 _275_
*277 _276_
*278 _277_
*279 _278_
*280 _279_
*281 _280_
*282 _281_
*283 _282_
*284 _283_
*285 _284_
*286 _285_
*287 _286_
*288 _287_
*289 _288_
*290 _289_
*291 _290_
*292 _291_
*293 _292_
*294 _293_
*295 _294_
*296 _295_
*297 _296_
*298 _297_
*299 _298_
*300 _299_
*301 _300_
*302 _301_
*303 _302_
*304 _303_
*305 _304_
*306 _305_
*307 _306_
*308 _307_
*309 _308_
*310 _309_
*311 _310_
*312 _311_
*313 _312_
*314 _313_
*315 _314_
*316 _315_
*317 _316_
*318 _317_
*319 _318_
*320 _319_
*321 _320_
*322 _321_
*323 _322_
*324 _323_
*325 _324_
*326 _325_
*327 _326_
*328 _327_
*329 _328_
*330 _329_
*331 _330_
*332 _331_
*333 _332_
*334 _333_
*335 _334_
*336 _335_
*337 _336_
*338 _337_
*339 _338_
*340 _339_
*341 _340_
*342 _341_
*343 _342_
*344 _343_
*345 _344_
*346 _345_
*347 _346_
*348 _347_
*349 _348_
*350 _349_
*351 _350_
*352 _351_
*353 _352_
*354 _353_
*355 _354_
*356 _355_
*357 _356_
*358 _357_
*359 _358_
*360 _359_
*361 _360_
*362 _361_
*363 _362_
*364 _363_
*365 _364_
*366 _365_
*367 _366_
*368 _367_
*369 _368_
*370 _369_
*371 _370_
*372 _371_
*373 _372_
*374 _373_
*375 _374_
*376 _375_
*377 _376_
*378 _377_
*379 _378_
*380 _379_
*381 _380_
*382 _381_
*383 _382_
*384 _383_
*385 _384_
*386 _385_
*387 _386_
*388 _387_
*389 _388_
*390 _389_
*391 _390_
*392 _391_
*393 _392_
*394 _393_
*395 _394_
*396 _395_
*397 _396_
*398 _397_
*399 _398_
*400 _399_
*401 _400_
*402 _401_
*403 _402_
*404 _403_
*405 _404_
*406 _405_
*407 _406_
*408 _407_
*409 _408_
*410 _409_
*411 _410_
*412 _411_
*413 _412_
*414 _413_
*415 _414_
*416 _415_
*417 _416_
*418 _417_
*419 _418_
*420 _419_
*421 _420_
*422 _421_
*423 _422_
*424 _423_
*425 _424_
*426 _425_
*427 _426_
*428 _427_
*429 _428_
*430 _429_
*431 _430_
*432 _431_
*433 _432_
*434 _433_
*435 _434_
*436 _435_
*437 _436_
*438 _437_
*439 _438_
*440 _439_
*441 _440_
*442 _441_
*443 _442_
*444 _443_
*445 _444_
*446 _445_
*447 _446_
*448 _447_
*449 _448_
*450 _449_
*451 _450_
*452 _451_
*453 _452_
*454 _453_
*455 _454_
*456 _455_
*457 _456_
*458 _457_
*459 _458_
*460 _459_
*461 _460_
*462 _461_
*463 _462_
*464 _463_
*465 _464_
*466 _465_
*467 _466_
*468 _467_
*469 _468_
*470 _469_
*471 _470_
*472 _471_
*473 _472_
*474 _473_
*475 _474_
*476 _475_
*477 _476_
*478 _477_
*479 _478_
*480 _479_
*481 _480_
*482 _481_
*483 _482_
*484 _483_
*485 _484_
*486 _485_
*487 clk
*488 ctrl\.state\.out\[1\]
*489 ctrl\.state\.out\[2\]
*490 dpath\.a_lt_b\$in0\[0\]
*491 dpath\.a_lt_b\$in0\[10\]
*492 dpath\.a_lt_b\$in0\[11\]
*493 dpath\.a_lt_b\$in0\[12\]
*494 dpath\.a_lt_b\$in0\[13\]
*495 dpath\.a_lt_b\$in0\[14\]
*496 dpath\.a_lt_b\$in0\[15\]
*497 dpath\.a_lt_b\$in0\[1\]
*498 dpath\.a_lt_b\$in0\[2\]
*499 dpath\.a_lt_b\$in0\[3\]
*500 dpath\.a_lt_b\$in0\[4\]
*501 dpath\.a_lt_b\$in0\[5\]
*502 dpath\.a_lt_b\$in0\[6\]
*503 dpath\.a_lt_b\$in0\[7\]
*504 dpath\.a_lt_b\$in0\[8\]
*505 dpath\.a_lt_b\$in0\[9\]
*506 dpath\.a_lt_b\$in1\[0\]
*507 dpath\.a_lt_b\$in1\[10\]
*508 dpath\.a_lt_b\$in1\[11\]
*509 dpath\.a_lt_b\$in1\[12\]
*510 dpath\.a_lt_b\$in1\[13\]
*511 dpath\.a_lt_b\$in1\[14\]
*512 dpath\.a_lt_b\$in1\[15\]
*513 dpath\.a_lt_b\$in1\[1\]
*514 dpath\.a_lt_b\$in1\[2\]
*515 dpath\.a_lt_b\$in1\[3\]
*516 dpath\.a_lt_b\$in1\[4\]
*517 dpath\.a_lt_b\$in1\[5\]
*518 dpath\.a_lt_b\$in1\[6\]
*519 dpath\.a_lt_b\$in1\[7\]
*520 dpath\.a_lt_b\$in1\[8\]
*521 dpath\.a_lt_b\$in1\[9\]
*522 req_msg[0]
*523 req_msg[10]
*524 req_msg[11]
*525 req_msg[12]
*526 req_msg[13]
*527 req_msg[14]
*528 req_msg[15]
*529 req_msg[16]
*530 req_msg[17]
*531 req_msg[18]
*532 req_msg[19]
*533 req_msg[1]
*534 req_msg[20]
*535 req_msg[21]
*536 req_msg[22]
*537 req_msg[23]
*538 req_msg[24]
*539 req_msg[25]
*540 req_msg[26]
*541 req_msg[27]
*542 req_msg[28]
*543 req_msg[29]
*544 req_msg[2]
*545 req_msg[30]
*546 req_msg[31]
*547 req_msg[3]
*548 req_msg[4]
*549 req_msg[5]
*550 req_msg[6]
*551 req_msg[7]
*552 req_msg[8]
*553 req_msg[9]
*554 net36
*555 req_val
*556 reset
*557 net37
*558 net38
*559 net39
*560 net40
*561 net41
*562 net42
*563 net43
*564 net44
*565 net45
*566 net46
*567 net47
*568 net48
*569 net49
*570 net50
*571 net51
*572 net52
*573 resp_rdy
*574 net53
*577 net1
*578 net2
*579 net3
*580 net4
*581 net5
*582 net6
*583 net7
*584 net8
*585 net9
*586 net10
*587 net11
*588 net12
*589 net13
*590 net14
*591 net15
*592 net16
*593 net17
*594 net18
*595 net19
*596 net20
*597 net21
*598 net22
*599 net23
*600 net24
*601 net25
*602 net26
*603 net27
*604 net28
*605 net29
*606 net30
*607 net31
*608 net32
*609 net33
*610 net34
*611 net35
*612 req_rdy
*613 resp_msg[0]
*614 resp_msg[10]
*615 resp_msg[11]
*616 resp_msg[12]
*617 resp_msg[13]
*618 resp_msg[14]
*619 resp_msg[15]
*620 resp_msg[1]
*621 resp_msg[2]
*622 resp_msg[3]
*623 resp_msg[4]
*624 resp_msg[5]
*625 resp_msg[6]
*626 resp_msg[7]
*627 resp_msg[8]
*628 resp_msg[9]
*629 resp_val
*630 clknet_0_clk
*631 clknet_2_0__leaf_clk
*632 clknet_2_1__leaf_clk
*633 clknet_2_2__leaf_clk
*634 clknet_2_3__leaf_clk
*635 net54
*636 net55
*637 net109
*638 net57
*639 net107
*640 net59
*641 net60
*642 net61
*643 net62
*644 net63
*645 net64
*646 net65
*647 net66
*648 net67
*649 net68
*650 net69
*652 net71
*653 net72
*654 net73
*655 net74
*656 net75
*657 net76
*658 net77
*659 net85
*660 net86
*661 net87
*662 net88
*663 net89
*664 net91
*665 net92
*666 net95
*667 net96
*668 net97
*669 net102
*670 net108
*671 net113
*672 net78
*673 net79
*674 net80
*675 net81
*676 net82
*677 net83
*678 net84
*679 net104
*680 _486_
*681 _487_
*682 _488_
*683 _489_
*684 _490_
*685 _491_
*686 _492_
*687 _493_
*688 _494_
*689 _495_
*690 _496_
*691 _497_
*692 _498_
*693 _499_
*694 _500_
*695 _501_
*696 _502_
*697 _503_
*698 _504_
*699 _505_
*700 _506_
*701 _507_
*702 _508_
*703 _509_
*704 _510_
*705 _511_
*706 _512_
*707 _513_
*708 _514_
*709 _515_
*710 _516_
*711 _517_
*712 _518_
*713 _519_
*714 _520_
*715 _521_
*716 _522_
*717 _523_
*718 _524_
*719 _525_
*720 _526_
*721 _527_
*722 _528_
*723 _529_
*724 _530_
*725 _531_
*726 _532_
*727 _533_
*728 _534_
*729 _535_
*730 _536_
*731 _537_
*732 _538_
*733 _539_
*734 _540_
*735 _541_
*736 _542_
*737 _543_
*738 _544_
*739 _545_
*740 _546_
*741 _547_
*742 _548_
*743 _549_
*744 _550_
*745 _551_
*746 _552_
*747 _553_
*748 _554_
*749 _555_
*750 _556_
*751 _557_
*752 _558_
*753 _559_
*754 _560_
*755 _561_
*756 _562_
*757 _563_
*758 _564_
*759 _565_
*760 _566_
*761 _567_
*762 _568_
*763 _569_
*764 _570_
*765 _571_
*766 _572_
*767 _573_
*768 _574_
*769 _575_
*770 _576_
*771 _577_
*772 _578_
*773 _579_
*774 _580_
*775 _581_
*776 _582_
*777 _583_
*778 _584_
*779 _585_
*780 _586_
*781 _587_
*782 _588_
*783 _589_
*784 _590_
*785 _591_
*786 _592_
*787 _593_
*788 _594_
*789 _595_
*790 _596_
*791 _597_
*792 _598_
*793 _599_
*794 _600_
*795 _601_
*796 _602_
*797 _603_
*798 _604_
*799 _605_
*800 _606_
*801 _607_
*802 _608_
*803 _609_
*804 _610_
*805 _611_
*806 _612_
*807 _613_
*808 _614_
*809 _615_
*810 _616_
*811 _617_
*812 _618_
*813 _619_
*814 _620_
*815 _621_
*816 _622_
*817 _623_
*818 _624_
*819 _625_
*820 _626_
*821 _627_
*822 _628_
*823 _629_
*824 _630_
*825 _631_
*826 _632_
*827 _633_
*828 _634_
*829 _635_
*830 _636_
*831 _637_
*832 _638_
*833 _639_
*834 _640_
*835 _641_
*836 _642_
*837 _643_
*838 _644_
*839 _645_
*840 _646_
*841 _647_
*842 _648_
*843 _649_
*844 _650_
*845 _651_
*846 _652_
*847 _653_
*848 _654_
*849 _655_
*850 _656_
*851 _657_
*852 _658_
*853 _659_
*854 _660_
*855 _661_
*856 _662_
*857 _663_
*858 _664_
*859 _665_
*860 _666_
*861 _667_
*862 _668_
*863 _669_
*864 _670_
*865 _671_
*866 _672_
*867 _673_
*868 _674_
*869 _675_
*870 _676_
*871 _677_
*872 _678_
*873 _679_
*874 _680_
*875 _681_
*876 _682_
*877 _683_
*878 _684_
*879 _685_
*880 _686_
*881 _687_
*882 _688_
*883 _689_
*884 _690_
*885 _691_
*886 _692_
*887 _693_
*888 _694_
*889 _695_
*890 _696_
*891 _697_
*892 _698_
*893 _699_
*894 _700_
*895 _701_
*896 _702_
*897 _703_
*898 _704_
*899 _705_
*900 _706_
*901 _707_
*902 _708_
*903 _709_
*904 _710_
*905 _711_
*906 _712_
*907 _713_
*908 _714_
*909 _715_
*910 _716_
*911 _717_
*912 _718_
*913 _719_
*914 _720_
*915 _721_
*916 _722_
*917 _723_
*918 _724_
*919 _725_
*920 _726_
*921 _727_
*922 _728_
*923 _729_
*924 _730_
*925 _731_
*926 _732_
*927 _733_
*928 _734_
*929 _735_
*930 _736_
*931 _737_
*932 _738_
*933 _739_
*934 _740_
*935 _741_
*936 _742_
*937 _743_
*938 _744_
*939 _745_
*940 _746_
*941 _747_
*942 _748_
*943 _749_
*944 _750_
*945 _751_
*946 _752_
*947 _753_
*948 _754_
*949 _755_
*950 _756_
*951 _757_
*952 _758_
*953 _759_
*954 _760_
*955 _761_
*956 _762_
*957 _763_
*958 _764_
*959 _765_
*960 _766_
*961 _767_
*962 _768_
*963 _769_
*964 _770_
*965 _771_
*966 _772_
*967 _773_
*968 _774_
*969 _775_
*970 _776_
*971 _777_
*972 _778_
*973 _779_
*974 _780_
*975 _781_
*976 _782_
*977 _783_
*978 _784_
*979 _785_
*980 _786_
*981 _787_
*982 _788_
*983 _789_
*984 _790_
*985 _791_
*986 _792_
*987 _793_
*988 _794_
*989 _795_
*990 _796_
*991 _797_
*992 _798_
*993 _799_
*994 _800_
*995 _801_
*996 _802_
*997 _803_
*998 _804_
*999 _805_
*1000 _806_
*1001 _807_
*1002 _808_
*1003 _809_
*1004 _810_
*1005 _811_
*1006 _812_
*1007 _813_
*1008 _814_
*1009 _815_
*1010 _816_
*1011 _817_
*1012 _818_
*1013 _819_
*1014 _820_
*1015 _821_
*1016 _822_
*1017 _823_
*1018 _824_
*1019 _825_
*1020 _826_
*1021 _827_
*1022 _828_
*1023 _829_
*1024 _830_
*1025 _831_
*1026 _832_
*1027 _833_
*1028 _834_
*1029 _835_
*1030 _836_
*1031 _837_
*1032 _838_
*1033 _839_
*1034 _840_
*1035 _841_
*1036 _842_
*1037 _843_
*1038 _844_
*1039 _845_
*1040 _846_
*1041 _847_
*1042 _848_
*1043 _849_
*1044 _850_
*1045 _851_
*1046 _852_
*1047 _853_
*1048 _854_
*1049 _855_
*1050 _856_
*1051 _857_
*1052 _858_
*1053 _859_
*1054 _860_
*1055 _861_
*1056 _862_
*1057 _863_
*1058 _864_
*1059 _865_
*1060 _866_
*1061 _867_
*1062 _868_
*1063 _869_
*1064 _870_
*1065 _871_
*1066 _872_
*1067 _873_
*1068 _874_
*1069 _875_
*1070 _876_
*1071 _877_
*1072 _878_
*1073 _879_
*1074 _880_
*1075 _881_
*1076 _882_
*1077 _883_
*1078 _884_
*1079 _885_
*1080 _886_
*1081 _887_
*1082 _888_
*1083 _889_
*1084 _890_
*1085 _891_
*1086 _892_
*1087 _893_
*1088 _894_
*1089 _895_
*1090 _896_
*1091 _897_
*1092 _898_
*1093 _899_
*1094 _900_
*1095 _901_
*1096 _902_
*1097 _903_
*1098 _904_
*1099 _905_
*1100 _906_
*1101 _907_
*1102 _908_
*1103 _909_
*1104 _910_
*1105 _911_
*1106 _912_
*1107 _913_
*1108 _914_
*1109 _915_
*1110 _916_
*1111 _917_
*1112 _918_
*1113 _919_
*1114 _920_
*1115 _921_
*1116 _922_
*1117 _923_
*1118 _924_
*1119 _925_
*1120 _926_
*1121 _927_
*1122 _928_
*1123 _929_
*1124 _930_
*1125 _931_
*1126 _932_
*1127 _933_
*1128 _934_
*1129 _935_
*1130 _936_
*1131 _937_
*1132 _938_
*1133 _939_
*1134 _940_
*1135 _941_
*1136 _942_
*1137 _943_
*1138 _944_
*1139 _945_
*1140 _946_
*1141 _947_
*1142 _948_
*1143 _949_
*1144 _950_
*1145 _951_
*1146 _952_
*1147 _953_
*1148 ctrl\.state\.out\[0\]\$_DFF_P_
*1149 ctrl\.state\.out\[1\]\$_DFF_P_
*1150 ctrl\.state\.out\[2\]\$_DFF_P_
*1151 dpath\.a_reg\.out\[0\]\$_DFFE_PP_
*1152 dpath\.a_reg\.out\[10\]\$_DFFE_PP_
*1153 dpath\.a_reg\.out\[11\]\$_DFFE_PP_
*1154 dpath\.a_reg\.out\[12\]\$_DFFE_PP_
*1155 dpath\.a_reg\.out\[13\]\$_DFFE_PP_
*1156 dpath\.a_reg\.out\[14\]\$_DFFE_PP_
*1157 dpath\.a_reg\.out\[15\]\$_DFFE_PP_
*1158 dpath\.a_reg\.out\[1\]\$_DFFE_PP_
*1159 dpath\.a_reg\.out\[2\]\$_DFFE_PP_
*1160 dpath\.a_reg\.out\[3\]\$_DFFE_PP_
*1161 dpath\.a_reg\.out\[4\]\$_DFFE_PP_
*1162 dpath\.a_reg\.out\[5\]\$_DFFE_PP_
*1163 dpath\.a_reg\.out\[6\]\$_DFFE_PP_
*1164 dpath\.a_reg\.out\[7\]\$_DFFE_PP_
*1165 dpath\.a_reg\.out\[8\]\$_DFFE_PP_
*1166 dpath\.a_reg\.out\[9\]\$_DFFE_PP_
*1167 dpath\.b_reg\.out\[0\]\$_DFFE_PP_
*1168 dpath\.b_reg\.out\[10\]\$_DFFE_PP_
*1169 dpath\.b_reg\.out\[11\]\$_DFFE_PP_
*1170 dpath\.b_reg\.out\[12\]\$_DFFE_PP_
*1171 dpath\.b_reg\.out\[13\]\$_DFFE_PP_
*1172 dpath\.b_reg\.out\[14\]\$_DFFE_PP_
*1173 dpath\.b_reg\.out\[15\]\$_DFFE_PP_
*1174 dpath\.b_reg\.out\[1\]\$_DFFE_PP_
*1175 dpath\.b_reg\.out\[2\]\$_DFFE_PP_
*1176 dpath\.b_reg\.out\[3\]\$_DFFE_PP_
*1177 dpath\.b_reg\.out\[4\]\$_DFFE_PP_
*1178 dpath\.b_reg\.out\[5\]\$_DFFE_PP_
*1179 dpath\.b_reg\.out\[6\]\$_DFFE_PP_
*1180 dpath\.b_reg\.out\[7\]\$_DFFE_PP_
*1181 dpath\.b_reg\.out\[8\]\$_DFFE_PP_
*1182 dpath\.b_reg\.out\[9\]\$_DFFE_PP_
*1183 PHY_EDGE_ROW_0_Right_0
*1184 PHY_EDGE_ROW_1_Right_1
*1185 PHY_EDGE_ROW_2_Right_2
*1186 PHY_EDGE_ROW_3_Right_3
*1187 PHY_EDGE_ROW_4_Right_4
*1188 PHY_EDGE_ROW_5_Right_5
*1189 PHY_EDGE_ROW_6_Right_6
*1190 PHY_EDGE_ROW_7_Right_7
*1191 PHY_EDGE_ROW_8_Right_8
*1192 PHY_EDGE_ROW_9_Right_9
*1193 PHY_EDGE_ROW_10_Right_10
*1194 PHY_EDGE_ROW_11_Right_11
*1195 PHY_EDGE_ROW_12_Right_12
*1196 PHY_EDGE_ROW_13_Right_13
*1197 PHY_EDGE_ROW_14_Right_14
*1198 PHY_EDGE_ROW_15_Right_15
*1199 PHY_EDGE_ROW_16_Right_16
*1200 PHY_EDGE_ROW_17_Right_17
*1201 PHY_EDGE_ROW_18_Right_18
*1202 PHY_EDGE_ROW_19_Right_19
*1203 PHY_EDGE_ROW_20_Right_20
*1204 PHY_EDGE_ROW_21_Right_21
*1205 PHY_EDGE_ROW_22_Right_22
*1206 PHY_EDGE_ROW_23_Right_23
*1207 PHY_EDGE_ROW_0_Left_24
*1208 PHY_EDGE_ROW_1_Left_25
*1209 PHY_EDGE_ROW_2_Left_26
*1210 PHY_EDGE_ROW_3_Left_27
*1211 PHY_EDGE_ROW_4_Left_28
*1212 PHY_EDGE_ROW_5_Left_29
*1213 PHY_EDGE_ROW_6_Left_30
*1214 PHY_EDGE_ROW_7_Left_31
*1215 PHY_EDGE_ROW_8_Left_32
*1216 PHY_EDGE_ROW_9_Left_33
*1217 PHY_EDGE_ROW_10_Left_34
*1218 PHY_EDGE_ROW_11_Left_35
*1219 PHY_EDGE_ROW_12_Left_36
*1220 PHY_EDGE_ROW_13_Left_37
*1221 PHY_EDGE_ROW_14_Left_38
*1222 PHY_EDGE_ROW_15_Left_39
*1223 PHY_EDGE_ROW_16_Left_40
*1224 PHY_EDGE_ROW_17_Left_41
*1225 PHY_EDGE_ROW_18_Left_42
*1226 PHY_EDGE_ROW_19_Left_43
*1227 PHY_EDGE_ROW_20_Left_44
*1228 PHY_EDGE_ROW_21_Left_45
*1229 PHY_EDGE_ROW_22_Left_46
*1230 PHY_EDGE_ROW_23_Left_47
*1231 input1
*1232 input2
*1233 input3
*1234 input4
*1235 input5
*1236 input6
*1237 input7
*1238 input8
*1239 input9
*1240 input10
*1241 input11
*1242 input12
*1243 input13
*1244 input14
*1245 input15
*1246 input16
*1247 input17
*1248 input18
*1249 input19
*1250 input20
*1251 input21
*1252 input22
*1253 input23
*1254 input24
*1255 input25
*1256 input26
*1257 input27
*1258 input28
*1259 input29
*1260 input30
*1261 input31
*1262 input32
*1263 input33
*1264 input34
*1265 input35
*1266 output36
*1267 output37
*1268 output38
*1269 output39
*1270 output40
*1271 output41
*1272 output42
*1273 output43
*1274 output44
*1275 output45
*1276 output46
*1277 output47
*1278 output48
*1279 output49
*1280 output50
*1281 output51
*1282 output52
*1283 output53
*1284 clkbuf_0_clk
*1285 clkbuf_2_0__f_clk
*1286 clkbuf_2_1__f_clk
*1287 clkbuf_2_2__f_clk
*1288 clkbuf_2_3__f_clk
*1289 clkload0
*1290 clkload1
*1291 clkload2
*1292 rebuffer1
*1293 rebuffer2
*1294 rebuffer56
*1295 rebuffer4
*1296 rebuffer54
*1297 rebuffer6
*1298 rebuffer7
*1299 rebuffer8
*1300 rebuffer9
*1301 rebuffer10
*1302 rebuffer11
*1303 rebuffer12
*1304 rebuffer13
*1305 rebuffer14
*1306 rebuffer15
*1307 rebuffer16
*1308 FILLER_0_1
*1309 rebuffer18
*1310 rebuffer19
*1311 rebuffer20
*1312 rebuffer21
*1313 rebuffer22
*1314 rebuffer23
*1315 rebuffer24
*1316 rebuffer32
*1317 rebuffer33
*1318 rebuffer34
*1319 rebuffer35
*1320 rebuffer36
*1321 rebuffer38
*1322 rebuffer39
*1323 rebuffer42
*1324 rebuffer43
*1325 rebuffer44
*1326 rebuffer49
*1327 rebuffer55
*1328 rebuffer60
*1329 rebuffer25
*1330 rebuffer26
*1331 rebuffer27
*1332 rebuffer28
*1333 rebuffer29
*1334 rebuffer30
*1335 rebuffer31
*1336 rebuffer51
*1337 FILLER_0_17
*1338 FILLER_0_25
*1339 FILLER_0_32
*1340 FILLER_0_46
*1341 FILLER_0_70
*1342 FILLER_0_86
*1343 FILLER_0_94
*1344 FILLER_0_152
*1345 FILLER_0_168
*1346 FILLER_0_176
*1347 FILLER_0_178
*1348 FILLER_1_1
*1349 FILLER_1_17
*1350 FILLER_1_25
*1351 FILLER_1_29
*1352 FILLER_1_31
*1353 FILLER_1_143
*1354 FILLER_1_159
*1355 FILLER_1_167
*1356 FILLER_1_171
*1357 FILLER_2_1
*1358 FILLER_2_17
*1359 FILLER_2_25
*1360 FILLER_2_50
*1361 FILLER_2_58
*1362 FILLER_2_75
*1363 FILLER_2_93
*1364 FILLER_2_151
*1365 FILLER_2_177
*1366 FILLER_3_1
*1367 FILLER_3_3
*1368 FILLER_3_28
*1369 FILLER_3_30
*1370 FILLER_3_49
*1371 FILLER_3_57
*1372 FILLER_3_61
*1373 FILLER_3_63
*1374 FILLER_3_67
*1375 FILLER_3_144
*1376 FILLER_3_172
*1377 FILLER_4_4
*1378 FILLER_4_12
*1379 FILLER_4_16
*1380 FILLER_4_18
*1381 FILLER_4_22
*1382 FILLER_4_39
*1383 FILLER_4_53
*1384 FILLER_4_57
*1385 FILLER_4_73
*1386 FILLER_4_85
*1387 FILLER_4_136
*1388 FILLER_5_1
*1389 FILLER_5_33
*1390 FILLER_5_66
*1391 FILLER_5_121
*1392 FILLER_5_178
*1393 FILLER_6_4
*1394 FILLER_6_20
*1395 FILLER_6_22
*1396 FILLER_6_33
*1397 FILLER_6_39
*1398 FILLER_6_50
*1399 FILLER_6_144
*1400 FILLER_7_1
*1401 FILLER_7_5
*1402 FILLER_7_7
*1403 FILLER_7_25
*1404 FILLER_7_43
*1405 FILLER_7_52
*1406 FILLER_7_60
*1407 FILLER_7_102
*1408 FILLER_7_112
*1409 FILLER_8_4
*1410 FILLER_8_19
*1411 FILLER_8_23
*1412 FILLER_8_27
*1413 FILLER_8_34
*1414 FILLER_8_41
*1415 FILLER_8_68
*1416 FILLER_8_70
*1417 FILLER_8_80
*1418 FILLER_8_94
*1419 FILLER_8_131
*1420 FILLER_8_161
*1421 FILLER_9_4
*1422 FILLER_9_11
*1423 FILLER_9_47
*1424 FILLER_9_55
*1425 FILLER_9_59
*1426 FILLER_9_88
*1427 FILLER_9_145
*1428 FILLER_10_1
*1429 FILLER_10_3
*1430 FILLER_10_7
*1431 FILLER_10_16
*1432 FILLER_10_21
*1433 FILLER_10_24
*1434 FILLER_10_32
*1435 FILLER_10_34
*1436 FILLER_10_74
*1437 FILLER_10_85
*1438 FILLER_10_96
*1439 FILLER_10_107
*1440 FILLER_11_18
*1441 FILLER_11_26
*1442 FILLER_11_28
*1443 FILLER_11_53
*1444 FILLER_11_114
*1445 FILLER_11_177
*1446 FILLER_12_1
*1447 FILLER_12_12
*1448 FILLER_12_16
*1449 FILLER_12_68
*1450 FILLER_12_109
*1451 FILLER_12_119
*1452 FILLER_12_145
*1453 FILLER_13_1
*1454 FILLER_13_9
*1455 FILLER_13_13
*1456 FILLER_13_17
*1457 FILLER_13_42
*1458 FILLER_13_171
*1459 FILLER_14_1
*1460 FILLER_14_5
*1461 FILLER_14_26
*1462 FILLER_14_92
*1463 FILLER_14_163
*1464 FILLER_15_1
*1465 FILLER_15_9
*1466 FILLER_15_11
*1467 FILLER_15_15
*1468 FILLER_15_57
*1469 FILLER_15_61
*1470 FILLER_15_63
*1471 FILLER_15_85
*1472 FILLER_15_100
*1473 FILLER_15_155
*1474 FILLER_15_171
*1475 FILLER_16_1
*1476 FILLER_16_17
*1477 FILLER_16_21
*1478 FILLER_16_25
*1479 FILLER_16_33
*1480 FILLER_16_50
*1481 FILLER_16_77
*1482 FILLER_16_153
*1483 FILLER_16_169
*1484 FILLER_16_177
*1485 FILLER_17_1
*1486 FILLER_17_3
*1487 FILLER_17_7
*1488 FILLER_17_23
*1489 FILLER_17_31
*1490 FILLER_17_35
*1491 FILLER_17_37
*1492 FILLER_17_65
*1493 FILLER_17_76
*1494 FILLER_17_84
*1495 FILLER_17_88
*1496 FILLER_17_100
*1497 FILLER_17_149
*1498 FILLER_17_165
*1499 FILLER_17_173
*1500 FILLER_17_177
*1501 FILLER_18_1
*1502 FILLER_18_6
*1503 FILLER_18_14
*1504 FILLER_18_16
*1505 FILLER_18_62
*1506 FILLER_18_96
*1507 FILLER_18_100
*1508 FILLER_18_102
*1509 FILLER_18_138
*1510 FILLER_18_170
*1511 FILLER_18_178
*1512 FILLER_19_1
*1513 FILLER_19_33
*1514 FILLER_19_37
*1515 FILLER_19_41
*1516 FILLER_19_78
*1517 FILLER_19_82
*1518 FILLER_19_84
*1519 FILLER_19_105
*1520 FILLER_19_118
*1521 FILLER_19_123
*1522 FILLER_19_135
*1523 FILLER_19_167
*1524 FILLER_19_175
*1525 FILLER_20_1
*1526 FILLER_20_5
*1527 FILLER_20_10
*1528 FILLER_20_18
*1529 FILLER_20_20
*1530 FILLER_20_30
*1531 FILLER_20_34
*1532 FILLER_20_59
*1533 FILLER_20_64
*1534 FILLER_20_69
*1535 FILLER_20_77
*1536 FILLER_20_81
*1537 FILLER_20_91
*1538 FILLER_20_93
*1539 FILLER_20_97
*1540 FILLER_20_101
*1541 FILLER_20_106
*1542 FILLER_20_108
*1543 FILLER_20_118
*1544 FILLER_20_122
*1545 FILLER_20_128
*1546 FILLER_20_134
*1547 FILLER_20_166
*1548 FILLER_20_174
*1549 FILLER_20_178
*1550 FILLER_21_1
*1551 FILLER_21_9
*1552 FILLER_21_35
*1553 FILLER_21_37
*1554 FILLER_21_45
*1555 FILLER_21_49
*1556 FILLER_21_53
*1557 FILLER_21_58
*1558 FILLER_21_64
*1559 FILLER_21_86
*1560 FILLER_21_91
*1561 FILLER_21_111
*1562 FILLER_21_119
*1563 FILLER_21_136
*1564 FILLER_21_168
*1565 FILLER_21_176
*1566 FILLER_21_178
*1567 FILLER_22_1
*1568 FILLER_22_17
*1569 FILLER_22_54
*1570 FILLER_22_128
*1571 FILLER_22_160
*1572 FILLER_22_176
*1573 FILLER_22_178
*1574 FILLER_23_1
*1575 FILLER_23_17
*1576 FILLER_23_21
*1577 FILLER_23_23
*1578 FILLER_23_27
*1579 FILLER_23_33
*1580 FILLER_23_37
*1581 FILLER_23_51
*1582 FILLER_23_55
*1583 FILLER_23_57
*1584 FILLER_23_61
*1585 FILLER_23_69
*1586 FILLER_23_71
*1587 FILLER_23_78
*1588 FILLER_23_89
*1589 FILLER_23_107
*1590 FILLER_23_117
*1591 FILLER_23_128
*1592 FILLER_23_160
*1593 FILLER_23_176
*1594 FILLER_23_178

*PORTS
clk I
req_msg[0] I
req_msg[10] I
req_msg[11] I
req_msg[12] I
req_msg[13] I
req_msg[14] I
req_msg[15] I
req_msg[16] I
req_msg[17] I
req_msg[18] I
req_msg[19] I
req_msg[1] I
req_msg[20] I
req_msg[21] I
req_msg[22] I
req_msg[23] I
req_msg[24] I
req_msg[25] I
req_msg[26] I
req_msg[27] I
req_msg[28] I
req_msg[29] I
req_msg[2] I
req_msg[30] I
req_msg[31] I
req_msg[3] I
req_msg[4] I
req_msg[5] I
req_msg[6] I
req_msg[7] I
req_msg[8] I
req_msg[9] I
req_rdy O
req_val I
reset I
resp_msg[0] O
resp_msg[10] O
resp_msg[11] O
resp_msg[12] O
resp_msg[13] O
resp_msg[14] O
resp_msg[15] O
resp_msg[1] O
resp_msg[2] O
resp_msg[3] O
resp_msg[4] O
resp_msg[5] O
resp_msg[6] O
resp_msg[7] O
resp_msg[8] O
resp_msg[9] O
resp_rdy I
resp_val O

*D_NET *1 0.000297171
*CONN
*I *1148:D I *D DFF_X1
*I *715:ZN O *D OAI21_X1
*CAP
1 *1148:D 7.76422e-05
2 *715:ZN 7.76422e-05
3 *1148:D *1149:CK 8.14241e-05
4 *1148:D *68:46 4.92112e-05
5 *1148:D *68:57 2.54672e-06
6 *1148:D *631:99 7.98822e-06
7 *1148:D *631:105 7.16188e-07
*RES
1 *715:ZN *1148:D 30.5714 
*END

*D_NET *2 0.000242435
*CONN
*I *1149:D I *D DFF_X1
*I *718:ZN O *D OAI21_X1
*CAP
1 *1149:D 8.40539e-05
2 *718:ZN 8.40539e-05
3 *1149:D *718:A 6.42887e-07
4 *1149:D *718:B1 4.3101e-06
5 *1149:D *1149:CK 5.06354e-05
6 *1149:D *66:10 1.87392e-05
7 *1149:D *610:10 0
*RES
1 *718:ZN *1149:D 20.6429 
*END

*D_NET *3 0.000103672
*CONN
*I *1150:D I *D DFF_X1
*I *708:ZN O *D OAI22_X1
*CAP
1 *1150:D 5.14779e-05
2 *708:ZN 5.14779e-05
3 *1150:D *707:A1 0
4 *1150:D *708:A1 0
5 *1150:D *1159:CK 7.16188e-07
*RES
1 *708:ZN *1150:D 15.1786 
*END

*D_NET *4 0.000756306
*CONN
*I *829:A2 I *D NAND2_X2
*I *709:A I *D BUF_X4
*I *1148:QN O *D DFF_X1
*CAP
1 *829:A2 5.76816e-05
2 *709:A 0
3 *1148:QN 4.59219e-05
4 *4:8 0.000103604
5 *829:A2 *710:A3 1.40793e-05
6 *829:A2 *829:A1 2.75346e-06
7 *829:A2 *1085:A1 0
8 *829:A2 *58:44 0.000146293
9 *829:A2 *62:163 4.26343e-05
10 *829:A2 *521:24 6.61442e-05
11 *4:8 *710:A3 3.08632e-05
12 *4:8 *834:A1 6.01479e-05
13 *4:8 *58:25 2.94435e-05
14 *4:8 *58:44 0.0001395
15 *4:8 *59:10 1.72405e-05
*RES
1 *1148:QN *4:8 19.0714 
2 *4:8 *709:A 10 
3 *4:8 *829:A2 20.9286 
*END

*D_NET *5 0.000100109
*CONN
*I *1151:D I *D DFF_X1
*I *841:ZN O *D NAND2_X1
*CAP
1 *1151:D 4.06435e-05
2 *841:ZN 4.06435e-05
3 *1151:D *841:A2 3.19164e-07
4 *1151:D *68:46 0
5 *1151:D *190:10 1.76665e-06
6 *1151:D *190:20 1.58933e-05
7 *1151:D *631:105 8.43215e-07
*RES
1 *841:ZN *1151:D 14.6786 
*END

*D_NET *6 0.000320518
*CONN
*I *1152:D I *D DFF_X1
*I *863:ZN O *D NAND2_X1
*CAP
1 *1152:D 0.000122581
2 *863:ZN 0.000122581
3 *1152:D *1092:A2 4.1078e-05
4 *1152:D *1166:CK 6.38328e-07
5 *1152:D *1233:A 3.36396e-05
6 *1152:D *1249:A 0
7 *1152:D *190:30 0
*RES
1 *863:ZN *1152:D 33.9643 
*END

*D_NET *7 0.000220277
*CONN
*I *1153:D I *D DFF_X1
*I *912:ZN O *D NAND2_X1
*CAP
1 *1153:D 7.13838e-05
2 *912:ZN 7.13838e-05
3 *1153:D *930:A1 1.20697e-05
4 *1153:D *931:B2 2.5504e-06
5 *1153:D *1096:A2 4.49465e-05
6 *1153:D *190:38 3.49085e-06
7 *1153:D *632:50 1.20555e-05
8 *1153:D *632:56 2.39679e-06
*RES
1 *912:ZN *1153:D 29.6071 
*END

*D_NET *8 0.000129134
*CONN
*I *1154:D I *D DFF_X1
*I *932:ZN O *D NAND2_X1
*CAP
1 *1154:D 5.13185e-05
2 *932:ZN 5.13185e-05
3 *1154:D *930:A2 1.70588e-05
4 *1154:D *68:91 0
5 *1154:D *187:121 8.79986e-06
6 *1154:D *187:136 6.38328e-07
7 *1154:D *632:129 0
*RES
1 *932:ZN *1154:D 15.5357 
*END

*D_NET *9 0.000332399
*CONN
*I *1155:D I *D DFF_X1
*I *960:ZN O *D NAND2_X1
*CAP
1 *1155:D 0.000126241
2 *960:ZN 0.000126241
3 *1155:D *959:A 5.38757e-06
4 *1155:D *959:B1 3.19164e-07
5 *1155:D *960:A1 1.88334e-06
6 *1155:D *960:A2 3.04774e-05
7 *1155:D *1155:CK 1.72405e-05
8 *1155:D *632:56 2.46085e-05
*RES
1 *960:ZN *1155:D 44.4286 
*END

*D_NET *10 0.000231332
*CONN
*I *1156:D I *D DFF_X1
*I *981:ZN O *D NAND2_X1
*CAP
1 *1156:D 4.22028e-05
2 *981:ZN 4.22028e-05
3 *1156:D *979:A2 2.96568e-05
4 *1156:D *980:A 4.20755e-07
5 *1156:D *980:B1 6.50827e-06
6 *1156:D *1235:A 8.1183e-06
7 *1156:D *68:110 0
8 *1156:D *337:14 0.000102223
*RES
1 *981:ZN *1156:D 27.3929 
*END

*D_NET *11 0.000173177
*CONN
*I *1157:D I *D DFF_X2
*I *1001:ZN O *D NAND2_X1
*CAP
1 *1157:D 7.25694e-05
2 *1001:ZN 7.25694e-05
3 *1157:D *1001:A1 1.11168e-06
4 *1157:D *1157:CK 1.5969e-05
5 *1157:D *190:61 1.0958e-05
*RES
1 *1001:ZN *1157:D 28.25 
*END

*D_NET *12 0.000196056
*CONN
*I *1158:D I *D DFF_X1
*I *1009:ZN O *D NAND2_X1
*CAP
1 *1158:D 7.03502e-05
2 *1009:ZN 7.03502e-05
3 *1158:D *1008:A 1.21774e-06
4 *1158:D *72:12 7.16193e-06
5 *1158:D *588:16 0
6 *1158:D *631:24 1.5896e-05
7 *1158:D *631:34 3.10804e-05
*RES
1 *1009:ZN *1158:D 28.0714 
*END

*D_NET *13 0.000282173
*CONN
*I *1159:D I *D DFF_X1
*I *1016:ZN O *D NAND2_X1
*CAP
1 *1159:D 7.62964e-05
2 *1016:ZN 7.62964e-05
3 *1159:D *1008:B2 0
4 *1159:D *1015:B2 3.35822e-05
5 *1159:D *1159:CK 0
6 *1159:D *588:16 9.59978e-05
*RES
1 *1016:ZN *1159:D 30.2857 
*END

*D_NET *14 0.000289641
*CONN
*I *1160:D I *D DFF_X1
*I *1023:ZN O *D NAND2_X1
*CAP
1 *1160:D 0.000115775
2 *1023:ZN 0.000115775
3 *1160:D *1022:B1 2.85862e-06
4 *1160:D *1023:A2 8.26038e-06
5 *1160:D *1115:B2 6.81575e-06
6 *1160:D *72:12 5.74663e-06
7 *1160:D *189:28 4.78746e-06
8 *1160:D *499:8 1.60038e-06
9 *1160:D *499:16 0
10 *1160:D *631:34 1.09659e-05
11 *1160:D *631:38 1.70567e-05
*RES
1 *1023:ZN *1160:D 32.8929 
*END

*D_NET *15 0.000669351
*CONN
*I *1161:D I *D DFF_X1
*I *1030:ZN O *D NAND2_X1
*CAP
1 *1161:D 0.000167399
2 *1030:ZN 0.000167399
3 *1161:D resp_msg[4] 3.4706e-06
4 *1161:D resp_msg[5] 0.000221324
5 *1161:D *727:A2 2.88159e-06
6 *1161:D *1028:A1 1.29643e-06
7 *1161:D *1028:A2 1.74934e-05
8 *1161:D *1030:A1 7.66675e-07
9 *1161:D *1030:A2 5.11191e-06
10 *1161:D *1124:A1 0
11 *1161:D *1125:B1 5.47604e-05
12 *1161:D *1125:B2 1.99513e-05
13 *1161:D *1243:A 2.10286e-06
14 *1161:D *1257:A 5.39412e-06
*RES
1 *1030:ZN *1161:D 42.3214 
*END

*D_NET *16 0.000864894
*CONN
*I *1162:D I *D DFF_X1
*I *1040:ZN O *D NAND2_X1
*CAP
1 *1162:D 0
2 *1040:ZN 0.000260677
3 *16:36 0.000260677
4 *16:36 *749:A 3.33792e-05
5 *16:36 *1025:A1 5.89751e-06
6 *16:36 *1026:B1 3.82787e-05
7 *16:36 *1026:B2 3.43309e-05
8 *16:36 *1027:A1 9.05253e-06
9 *16:36 *1027:A2 7.19036e-06
10 *16:36 *1037:A2 1.23048e-05
11 *16:36 *1040:A1 2.52965e-06
12 *16:36 *1131:A 1.57106e-05
13 *16:36 *1245:A 2.08274e-05
14 *16:36 *1323:A 2.26886e-05
15 *16:36 *1324:A 2.52965e-06
16 *16:36 *1325:A 1.77923e-05
17 *16:36 *96:22 1.18232e-06
18 *16:36 *184:76 2.10477e-05
19 *16:36 *359:18 1.94479e-06
20 *16:36 *365:16 5.11334e-05
21 *16:36 *418:56 1.85634e-05
22 *16:36 *652:16 0
23 *16:36 *668:22 2.71557e-05
*RES
1 *1040:ZN *16:36 49.5 
2 *16:36 *1162:D 5 
*END

*D_NET *17 0.000807956
*CONN
*I *1163:D I *D DFF_X1
*I *1047:ZN O *D NAND2_X1
*CAP