*SPEF "ieee 1481-1999"
*DESIGN "gcd"
*DATE "15:18:02 Friday March 28, 2025"
*VENDOR "The OpenROAD Project"
*PROGRAM "OpenROAD"
*VERSION "v2.0-17941-g7fb347f37"
*DESIGN_FLOW "NAME_SCOPE LOCAL" "PIN_CAP NONE"
*DIVIDER /
*DELIMITER :
*BUS_DELIMITER []
*T_UNIT 1 NS
*C_UNIT 1 PF
*R_UNIT 1 OHM
*L_UNIT 1 HENRY

*NAME_MAP
*1 _000_
*2 _001_
*3 _002_
*4 _003_
*5 _004_
*6 _005_
*7 _006_
*8 _007_
*9 _008_
*10 _009_
*11 _010_
*12 _011_
*13 _012_
*14 _013_
*15 _014_
*16 _015_
*17 _016_
*18 _017_
*19 _018_
*20 _019_
*21 _020_
*22 _021_
*23 _022_
*24 _023_
*25 _024_
*26 _025_
*27 _026_
*28 _027_
*29 _028_
*30 _029_
*31 _030_
*32 _031_
*33 _032_
*34 _033_
*35 _034_
*36 _035_
*37 _036_
*38 _037_
*39 _038_
*40 _039_
*41 _040_
*42 _041_
*43 _042_
*44 _043_
*45 _044_
*46 _045_
*47 _046_
*48 _047_
*49 _048_
*50 _049_
*51 _050_
*52 _051_
*53 _052_
*54 _053_
*55 _054_
*56 _055_
*57 _056_
*58 _057_
*59 _058_
*60 _059_
*61 _060_
*62 _061_
*63 _062_
*64 _063_
*65 _064_
*66 _065_
*67 _066_
*68 _067_
*69 _068_
*70 _069_
*71 _070_
*72 net147
*73 _072_
*74 _073_
*75 _074_
*76 _075_
*77 _076_
*78 _077_
*79 _078_
*80 _079_
*81 _080_
*82 _081_
*83 _082_
*84 _083_
*85 _084_
*86 _085_
*87 _086_
*88 _087_
*89 _088_
*90 _089_
*91 _090_
*92 _091_
*93 _092_
*94 _093_
*95 _094_
*96 _095_
*97 _096_
*98 _097_
*99 _098_
*100 _099_
*101 _100_
*102 _101_
*103 _102_
*104 _103_
*105 _104_
*106 _105_
*107 _106_
*108 _107_
*109 _108_
*110 _109_
*111 _110_
*112 _111_
*113 _112_
*114 _113_
*115 _114_
*116 _115_
*117 _116_
*118 _117_
*119 _118_
*120 _119_
*121 _120_
*122 _121_
*123 _122_
*124 _123_
*125 _124_
*126 _125_
*127 _126_
*128 _127_
*129 _128_
*130 _129_
*131 _130_
*132 _131_
*133 _132_
*134 _133_
*135 _134_
*136 _135_
*137 _136_
*138 _137_
*139 _138_
*140 _139_
*141 _140_
*142 _141_
*143 _142_
*144 _143_
*145 _144_
*146 _145_
*147 _146_
*148 _147_
*149 _148_
*150 _149_
*151 _150_
*152 _151_
*153 _152_
*154 _153_
*155 _154_
*156 _155_
*157 _156_
*158 _157_
*159 _158_
*160 _159_
*161 _160_
*162 _161_
*163 _162_
*164 _163_
*165 _164_
*166 _165_
*167 _166_
*168 _167_
*169 _168_
*170 _169_
*171 _170_
*172 _171_
*173 _172_
*174 _173_
*175 _174_
*176 _175_
*177 _176_
*178 _177_
*179 _178_
*180 _179_
*181 _180_
*182 _181_
*183 _182_
*184 _183_
*185 _184_
*186 _185_
*187 _186_
*188 _187_
*189 _188_
*190 _189_
*191 _190_
*192 _191_
*193 _192_
*194 _193_
*195 _194_
*196 _195_
*197 _196_
*198 _197_
*199 _198_
*200 _199_
*201 _200_
*202 _201_
*203 _202_
*204 _203_
*205 _204_
*206 _205_
*207 _206_
*208 _207_
*209 _208_
*210 _209_
*211 _210_
*212 _211_
*213 _212_
*214 _213_
*215 _214_
*216 _215_
*217 _216_
*218 _217_
*219 _218_
*220 _219_
*221 _220_
*222 _221_
*223 _222_
*224 _223_
*225 _224_
*226 _225_
*227 _226_
*228 _227_
*229 _228_
*230 _229_
*231 _230_
*232 _231_
*233 _232_
*234 _233_
*235 _234_
*236 _235_
*237 _236_
*238 _237_
*239 _238_
*240 _239_
*241 _240_
*242 _241_
*243 _242_
*244 _243_
*245 _244_
*246 _245_
*247 _246_
*248 _247_
*249 _248_
*250 _249_
*251 _250_
*252 _251_
*253 _252_
*254 _253_
*255 _254_
*256 _255_
*257 _256_
*258 _257_
*259 _258_
*260 _259_
*261 _260_
*262 _261_
*263 _262_
*264 _263_
*265 _264_
*266 _265_
*267 _266_
*268 _267_
*269 _268_
*270 _269_
*271 _270_
*272 _271_
*273 _272_
*274 _273_
*275 _274_
*276 _275_
*277 _276_
*278 _277_
*279 _278_
*280 _279_
*281 _280_
*282 _281_
*283 _282_
*284 _283_
*285 _284_
*286 _285_
*287 _286_
*288 _287_
*289 _288_
*290 _289_
*291 _290_
*292 _291_
*293 _292_
*294 _293_
*295 _294_
*296 _295_
*297 _296_
*298 _297_
*299 _298_
*300 _299_
*301 _300_
*302 _301_
*303 _302_
*304 _303_
*305 _304_
*306 _305_
*307 _306_
*308 _307_
*309 _308_
*310 _309_
*311 _310_
*312 _311_
*313 _312_
*314 _313_
*315 _314_
*316 _315_
*317 _316_
*318 _317_
*319 _318_
*320 _319_
*321 _320_
*322 _321_
*323 _322_
*324 _323_
*325 _324_
*326 _325_
*327 _326_
*328 _327_
*329 _328_
*330 _329_
*331 _330_
*332 _331_
*333 _332_
*334 _333_
*335 _334_
*336 _335_
*337 _336_
*338 _337_
*339 _338_
*340 _339_
*341 _340_
*342 _341_
*343 _342_
*344 _343_
*345 _344_
*346 _345_
*347 _346_
*348 _347_
*349 _348_
*350 _349_
*351 _350_
*352 _351_
*353 _352_
*354 _353_
*355 _354_
*356 _355_
*357 _356_
*358 _357_
*359 _358_
*360 _359_
*361 _360_
*362 _361_
*363 _362_
*364 _363_
*365 _364_
*366 _365_
*367 _366_
*368 _367_
*369 _368_
*370 _369_
*371 _370_
*372 _371_
*373 _372_
*374 _373_
*375 _374_
*376 _375_
*377 _376_
*378 _377_
*379 _378_
*380 _379_
*381 _380_
*382 _381_
*383 _382_
*384 _383_
*385 _384_
*386 _385_
*387 _386_
*388 _387_
*389 _388_
*390 _389_
*391 _390_
*392 _391_
*393 _392_
*394 _393_
*395 _394_
*396 _395_
*397 _396_
*398 _397_
*399 _398_
*400 _399_
*401 _400_
*402 _401_
*403 _402_
*404 _403_
*405 _404_
*406 _405_
*407 _406_
*408 _407_
*409 _408_
*410 _409_
*411 _410_
*412 _411_
*413 _412_
*414 _413_
*415 _414_
*416 _415_
*417 _416_
*418 _417_
*419 _418_
*420 _419_
*421 _420_
*422 _421_
*423 _422_
*424 _423_
*425 _424_
*426 _425_
*427 _426_
*428 _427_
*429 _428_
*430 _429_
*431 _430_
*432 _431_
*433 _432_
*434 _433_
*435 _434_
*436 _435_
*437 _436_
*438 _437_
*439 _438_
*440 _439_
*441 _440_
*442 _441_
*443 _442_
*444 _443_
*445 _444_
*446 _445_
*447 _446_
*448 _447_
*449 _448_
*450 _449_
*451 _450_
*452 _451_
*453 _452_
*454 _453_
*455 _454_
*456 _455_
*457 _456_
*458 _457_
*459 _458_
*460 _459_
*461 _460_
*462 _461_
*463 _462_
*464 _463_
*465 _464_
*466 _465_
*467 _466_
*468 _467_
*469 _468_
*470 _469_
*471 _470_
*472 _471_
*473 _472_
*474 _473_
*475 _474_
*476 _475_
*477 _476_
*478 _477_
*479 _478_
*480 _479_
*481 _480_
*482 _481_
*483 _482_
*484 _483_
*485 _484_
*486 _485_
*487 clk
*488 ctrl\.state\.out\[1\]
*489 ctrl\.state\.out\[2\]
*490 dpath\.a_lt_b\$in0\[0\]
*491 dpath\.a_lt_b\$in0\[10\]
*492 dpath\.a_lt_b\$in0\[11\]
*493 dpath\.a_lt_b\$in0\[12\]
*494 dpath\.a_lt_b\$in0\[13\]
*495 dpath\.a_lt_b\$in0\[14\]
*496 dpath\.a_lt_b\$in0\[15\]
*497 dpath\.a_lt_b\$in0\[1\]
*498 dpath\.a_lt_b\$in0\[2\]
*499 dpath\.a_lt_b\$in0\[3\]
*500 dpath\.a_lt_b\$in0\[4\]
*501 dpath\.a_lt_b\$in0\[5\]
*502 dpath\.a_lt_b\$in0\[6\]
*503 dpath\.a_lt_b\$in0\[7\]
*504 dpath\.a_lt_b\$in0\[8\]
*505 dpath\.a_lt_b\$in0\[9\]
*506 dpath\.a_lt_b\$in1\[0\]
*507 dpath\.a_lt_b\$in1\[10\]
*508 dpath\.a_lt_b\$in1\[11\]
*509 dpath\.a_lt_b\$in1\[12\]
*510 dpath\.a_lt_b\$in1\[13\]
*511 dpath\.a_lt_b\$in1\[14\]
*512 dpath\.a_lt_b\$in1\[15\]
*513 dpath\.a_lt_b\$in1\[1\]
*514 dpath\.a_lt_b\$in1\[2\]
*515 dpath\.a_lt_b\$in1\[3\]
*516 dpath\.a_lt_b\$in1\[4\]
*517 dpath\.a_lt_b\$in1\[5\]
*518 dpath\.a_lt_b\$in1\[6\]
*519 dpath\.a_lt_b\$in1\[7\]
*520 dpath\.a_lt_b\$in1\[8\]
*521 dpath\.a_lt_b\$in1\[9\]
*522 req_msg[0]
*523 req_msg[10]
*524 req_msg[11]
*525 req_msg[12]
*526 req_msg[13]
*527 req_msg[14]
*528 req_msg[15]
*529 req_msg[16]
*530 req_msg[17]
*531 req_msg[18]
*532 req_msg[19]
*533 req_msg[1]
*534 req_msg[20]
*535 req_msg[21]
*536 req_msg[22]
*537 req_msg[23]
*538 req_msg[24]
*539 req_msg[25]
*540 req_msg[26]
*541 req_msg[27]
*542 req_msg[28]
*543 req_msg[29]
*544 req_msg[2]
*545 req_msg[30]
*546 req_msg[31]
*547 req_msg[3]
*548 req_msg[4]
*549 req_msg[5]
*550 req_msg[6]
*551 req_msg[7]
*552 req_msg[8]
*553 req_msg[9]
*554 net36
*555 req_val
*556 reset
*557 net37
*558 net38
*559 net39
*560 net40
*561 net41
*562 net42
*563 net43
*564 net44
*565 net45
*566 net46
*567 net47
*568 net48
*569 net49
*570 net50
*571 net51
*572 net52
*573 resp_rdy
*574 net53
*577 net1
*578 net2
*579 net3
*580 net4
*581 net5
*582 net6
*583 net7
*584 net8
*585 net9
*586 net10
*587 net11
*588 net12
*589 net13
*590 net14
*591 net15
*592 net16
*593 net17
*594 net18
*595 net19
*596 net20
*597 net21
*598 net22
*599 net23
*600 net24
*601 net25
*602 net26
*603 net27
*604 net28
*605 net29
*606 net30
*607 net31
*608 net32
*609 net33
*610 net34
*611 net35
*612 req_rdy
*613 resp_msg[0]
*614 resp_msg[10]
*615 resp_msg[11]
*616 resp_msg[12]
*617 resp_msg[13]
*618 resp_msg[14]
*619 resp_msg[15]
*620 resp_msg[1]
*621 resp_msg[2]
*622 resp_msg[3]
*623 resp_msg[4]
*624 resp_msg[5]
*625 resp_msg[6]
*626 resp_msg[7]
*627 resp_msg[8]
*628 resp_msg[9]
*629 resp_val
*630 clknet_0_clk
*631 clknet_2_0__leaf_clk
*632 clknet_2_1__leaf_clk
*633 clknet_2_2__leaf_clk
*634 clknet_2_3__leaf_clk
*635 net54
*636 net55
*637 net56
*638 net57
*639 net58
*640 net78
*641 net79
*642 net80
*643 net81
*644 net105
*645 net106
*646 net107
*647 net108
*648 net135
*649 net136
*650 net137
*651 net138
*652 net139
*653 net148
*654 net149
*655 net150
*656 net153
*657 net59
*658 net60
*659 net61
*660 net62
*661 net63
*662 net64
*663 net68
*664 net69
*665 net74
*666 net75
*667 net76
*668 net77
*669 net82
*670 _486_
*671 _487_
*672 _488_
*673 _489_
*674 _490_
*675 _491_
*676 _492_
*677 _493_
*678 _494_
*679 _495_
*680 _496_
*681 _497_
*682 _498_
*683 _499_
*684 _500_
*685 _501_
*686 _502_
*687 _503_
*688 _504_
*689 _505_
*690 _506_
*691 _507_
*692 _508_
*693 _509_
*694 _510_
*695 _511_
*696 _512_
*697 _513_
*698 _514_
*699 _515_
*700 _516_
*701 _517_
*702 _518_
*703 _519_
*704 _520_
*705 _521_
*706 _522_
*707 _523_
*708 _524_
*709 _525_
*710 rebuffer94
*711 _527_
*712 _528_
*713 _529_
*714 _530_
*715 _531_
*716 _532_
*717 _533_
*718 _534_
*719 _535_
*720 _536_
*721 _537_
*722 _538_
*723 _539_
*724 _540_
*725 _541_
*726 _542_
*727 _543_
*728 _544_
*729 _545_
*730 _546_
*731 _547_
*732 _548_
*733 _549_
*734 _550_
*735 _551_
*736 _552_
*737 _553_
*738 _554_
*739 _555_
*740 _556_
*741 _557_
*742 _558_
*743 _559_
*744 _560_
*745 _561_
*746 _562_
*747 _563_
*748 _564_
*749 _565_
*750 _566_
*751 _567_
*752 _568_
*753 _569_
*754 _570_
*755 _571_
*756 _572_
*757 _573_
*758 _574_
*759 _575_
*760 _576_
*761 _577_
*762 _578_
*763 _579_
*764 _580_
*765 _581_
*766 _582_
*767 _583_
*768 _584_
*769 _585_
*770 _586_
*771 _587_
*772 _588_
*773 _589_
*774 _590_
*775 _591_
*776 _592_
*777 _593_
*778 _594_
*779 _595_
*780 _596_
*781 _597_
*782 _598_
*783 _599_
*784 _600_
*785 _601_
*786 _602_
*787 _603_
*788 _604_
*789 _605_
*790 _606_
*791 _607_
*792 _608_
*793 _609_
*794 _610_
*795 _611_
*796 _612_
*797 _613_
*798 _614_
*799 _615_
*800 _616_
*801 _617_
*802 _618_
*803 _619_
*804 _620_
*805 _621_
*806 _622_
*807 _623_
*808 _624_
*809 _625_
*810 _626_
*811 _627_
*812 _628_
*813 _629_
*814 _630_
*815 _631_
*816 _632_
*817 _633_
*818 _634_
*819 _635_
*820 _636_
*821 _637_
*822 _638_
*823 _639_
*824 _640_
*825 _641_
*826 _642_
*827 _643_
*828 _644_
*829 _645_
*830 _646_
*831 _647_
*832 _648_
*833 _649_
*834 _650_
*835 _651_
*836 _652_
*837 _653_
*838 _654_
*839 _655_
*840 _656_
*841 _657_
*842 _658_
*843 _659_
*844 _660_
*845 _661_
*846 _662_
*847 _663_
*848 _664_
*849 _665_
*850 _666_
*851 _667_
*852 _668_
*853 _669_
*854 _670_
*855 _671_
*856 _672_
*857 _673_
*858 _674_
*859 _675_
*860 _676_
*861 _677_
*862 _678_
*863 _679_
*864 _680_
*865 _681_
*866 _682_
*867 _683_
*868 _684_
*869 _685_
*870 _686_
*871 _687_
*872 _688_
*873 _689_
*874 _690_
*875 _691_
*876 _692_
*877 _693_
*878 _694_
*879 _695_
*880 _696_
*881 _697_
*882 _698_
*883 _699_
*884 _700_
*885 _701_
*886 _702_
*887 _703_
*888 _704_
*889 _705_
*890 _706_
*891 _707_
*892 _708_
*893 _709_
*894 _710_
*895 _711_
*896 _712_
*897 _713_
*898 _714_
*899 _715_
*900 _716_
*901 _717_
*902 _718_
*903 _719_
*904 _720_
*905 _721_
*906 _722_
*907 _723_
*908 _724_
*909 _725_
*910 _726_
*911 _727_
*912 _728_
*913 _729_
*914 _730_
*915 _731_
*916 _732_
*917 _733_
*918 _734_
*919 _735_
*920 _736_
*921 _737_
*922 _738_
*923 _739_
*924 _740_
*925 _741_
*926 _742_
*927 _743_
*928 _744_
*929 _745_
*930 _746_
*931 _747_
*932 _748_
*933 _749_
*934 _750_
*935 _751_
*936 _752_
*937 _753_
*938 _754_
*939 _755_
*940 _756_
*941 _757_
*942 _758_
*943 _759_
*944 _760_
*945 _761_
*946 _762_
*947 _763_
*948 _764_
*949 _765_
*950 _766_
*951 _767_
*952 _768_
*953 _769_
*954 _770_
*955 _771_
*956 _772_
*957 _773_
*958 _774_
*959 _775_
*960 _776_
*961 _777_
*962 _778_
*963 _779_
*964 _780_
*965 _781_
*966 _782_
*967 _783_
*968 _784_
*969 _785_
*970 _786_
*971 _787_
*972 _788_
*973 _789_
*974 _790_
*975 _791_
*976 _792_
*977 _793_
*978 _794_
*979 _795_
*980 _796_
*981 _797_
*982 _798_
*983 _799_
*984 _800_
*985 _801_
*986 _802_
*987 _803_
*988 _804_
*989 _805_
*990 _806_
*991 _807_
*992 _808_
*993 _809_
*994 _810_
*995 _811_
*996 _812_
*997 _813_
*998 _814_
*999 _815_
*1000 _816_
*1001 _817_
*1002 _818_
*1003 _819_
*1004 _820_
*1005 _821_
*1006 _822_
*1007 _823_
*1008 _824_
*1009 _825_
*1010 _826_
*1011 _827_
*1012 _828_
*1013 _829_
*1014 _830_
*1015 _831_
*1016 _832_
*1017 _833_
*1018 _834_
*1019 _835_
*1020 _836_
*1021 _837_
*1022 _838_
*1023 _839_
*1024 _840_
*1025 _841_
*1026 _842_
*1027 _843_
*1028 _844_
*1029 _845_
*1030 _846_
*1031 _847_
*1032 _848_
*1033 _849_
*1034 _850_
*1035 _851_
*1036 _852_
*1037 _853_
*1038 _854_
*1039 _855_
*1040 _856_
*1041 _857_
*1042 _858_
*1043 _859_
*1044 _860_
*1045 _861_
*1046 _862_
*1047 _863_
*1048 _864_
*1049 _865_
*1050 _866_
*1051 _867_
*1052 _868_
*1053 _869_
*1054 _870_
*1055 _871_
*1056 _872_
*1057 _873_
*1058 _874_
*1059 _875_
*1060 _876_
*1061 _877_
*1062 _878_
*1063 _879_
*1064 _880_
*1065 _881_
*1066 _882_
*1067 _883_
*1068 _884_
*1069 _885_
*1070 _886_
*1071 _887_
*1072 _888_
*1073 _889_
*1074 _890_
*1075 _891_
*1076 _892_
*1077 _893_
*1078 _894_
*1079 _895_
*1080 _896_
*1081 _897_
*1082 _898_
*1083 _899_
*1084 _900_
*1085 _901_
*1086 _902_
*1087 _903_
*1088 _904_
*1089 _905_
*1090 _906_
*1091 _907_
*1092 _908_
*1093 _909_
*1094 _910_
*1095 _911_
*1096 _912_
*1097 _913_
*1098 _914_
*1099 _915_
*1100 _916_
*1101 _917_
*1102 _918_
*1103 _919_
*1104 _920_
*1105 _921_
*1106 _922_
*1107 _923_
*1108 _924_
*1109 _925_
*1110 _926_
*1111 _927_
*1112 _928_
*1113 _929_
*1114 _930_
*1115 _931_
*1116 _932_
*1117 _933_
*1118 _934_
*1119 _935_
*1120 _936_
*1121 _937_
*1122 _938_
*1123 _939_
*1124 _940_
*1125 _941_
*1126 _942_
*1127 _943_
*1128 _944_
*1129 _945_
*1130 _946_
*1131 _947_
*1132 _948_
*1133 _949_
*1134 _950_
*1135 _951_
*1136 _952_
*1137 _953_
*1138 ctrl\.state\.out\[0\]\$_DFF_P_
*1139 ctrl\.state\.out\[1\]\$_DFF_P_
*1140 ctrl\.state\.out\[2\]\$_DFF_P_
*1141 dpath\.a_reg\.out\[0\]\$_DFFE_PP_
*1142 dpath\.a_reg\.out\[10\]\$_DFFE_PP_
*1143 dpath\.a_reg\.out\[11\]\$_DFFE_PP_
*1144 dpath\.a_reg\.out\[12\]\$_DFFE_PP_
*1145 dpath\.a_reg\.out\[13\]\$_DFFE_PP_
*1146 dpath\.a_reg\.out\[14\]\$_DFFE_PP_
*1147 dpath\.a_reg\.out\[15\]\$_DFFE_PP_
*1148 dpath\.a_reg\.out\[1\]\$_DFFE_PP_
*1149 dpath\.a_reg\.out\[2\]\$_DFFE_PP_
*1150 dpath\.a_reg\.out\[3\]\$_DFFE_PP_
*1151 dpath\.a_reg\.out\[4\]\$_DFFE_PP_
*1152 dpath\.a_reg\.out\[5\]\$_DFFE_PP_
*1153 dpath\.a_reg\.out\[6\]\$_DFFE_PP_
*1154 dpath\.a_reg\.out\[7\]\$_DFFE_PP_
*1155 dpath\.a_reg\.out\[8\]\$_DFFE_PP_
*1156 dpath\.a_reg\.out\[9\]\$_DFFE_PP_
*1157 dpath\.b_reg\.out\[0\]\$_DFFE_PP_
*1158 dpath\.b_reg\.out\[10\]\$_DFFE_PP_
*1159 dpath\.b_reg\.out\[11\]\$_DFFE_PP_
*1160 dpath\.b_reg\.out\[12\]\$_DFFE_PP_
*1161 dpath\.b_reg\.out\[13\]\$_DFFE_PP_
*1162 dpath\.b_reg\.out\[14\]\$_DFFE_PP_
*1163 dpath\.b_reg\.out\[15\]\$_DFFE_PP_
*1164 dpath\.b_reg\.out\[1\]\$_DFFE_PP_
*1165 dpath\.b_reg\.out\[2\]\$_DFFE_PP_
*1166 dpath\.b_reg\.out\[3\]\$_DFFE_PP_
*1167 dpath\.b_reg\.out\[4\]\$_DFFE_PP_
*1168 dpath\.b_reg\.out\[5\]\$_DFFE_PP_
*1169 dpath\.b_reg\.out\[6\]\$_DFFE_PP_
*1170 dpath\.b_reg\.out\[7\]\$_DFFE_PP_
*1171 dpath\.b_reg\.out\[8\]\$_DFFE_PP_
*1172 dpath\.b_reg\.out\[9\]\$_DFFE_PP_
*1173 PHY_EDGE_ROW_0_Right_0
*1174 PHY_EDGE_ROW_1_Right_1
*1175 PHY_EDGE_ROW_2_Right_2
*1176 PHY_EDGE_ROW_3_Right_3
*1177 PHY_EDGE_ROW_4_Right_4
*1178 PHY_EDGE_ROW_5_Right_5
*1179 PHY_EDGE_ROW_6_Right_6
*1180 PHY_EDGE_ROW_7_Right_7
*1181 PHY_EDGE_ROW_8_Right_8
*1182 PHY_EDGE_ROW_9_Right_9
*1183 PHY_EDGE_ROW_10_Right_10
*1184 PHY_EDGE_ROW_11_Right_11
*1185 PHY_EDGE_ROW_12_Right_12
*1186 PHY_EDGE_ROW_13_Right_13
*1187 PHY_EDGE_ROW_14_Right_14
*1188 PHY_EDGE_ROW_15_Right_15
*1189 PHY_EDGE_ROW_16_Right_16
*1190 PHY_EDGE_ROW_17_Right_17
*1191 PHY_EDGE_ROW_18_Right_18
*1192 PHY_EDGE_ROW_19_Right_19
*1193 PHY_EDGE_ROW_20_Right_20
*1194 PHY_EDGE_ROW_21_Right_21
*1195 PHY_EDGE_ROW_22_Right_22
*1196 PHY_EDGE_ROW_0_Left_23
*1197 PHY_EDGE_ROW_1_Left_24
*1198 PHY_EDGE_ROW_2_Left_25
*1199 PHY_EDGE_ROW_3_Left_26
*1200 PHY_EDGE_ROW_4_Left_27
*1201 PHY_EDGE_ROW_5_Left_28
*1202 PHY_EDGE_ROW_6_Left_29
*1203 PHY_EDGE_ROW_7_Left_30
*1204 PHY_EDGE_ROW_8_Left_31
*1205 PHY_EDGE_ROW_9_Left_32
*1206 PHY_EDGE_ROW_10_Left_33
*1207 PHY_EDGE_ROW_11_Left_34
*1208 PHY_EDGE_ROW_12_Left_35
*1209 PHY_EDGE_ROW_13_Left_36
*1210 PHY_EDGE_ROW_14_Left_37
*1211 PHY_EDGE_ROW_15_Left_38
*1212 PHY_EDGE_ROW_16_Left_39
*1213 PHY_EDGE_ROW_17_Left_40
*1214 PHY_EDGE_ROW_18_Left_41
*1215 PHY_EDGE_ROW_19_Left_42
*1216 PHY_EDGE_ROW_20_Left_43
*1217 PHY_EDGE_ROW_21_Left_44
*1218 PHY_EDGE_ROW_22_Left_45
*1219 input1
*1220 input2
*1221 input3
*1222 input4
*1223 input5
*1224 input6
*1225 input7
*1226 input8
*1227 input9
*1228 input10
*1229 input11
*1230 input12
*1231 input13
*1232 input14
*1233 input15
*1234 input16
*1235 input17
*1236 input18
*1237 input19
*1238 input20
*1239 input21
*1240 input22
*1241 input23
*1242 input24
*1243 input25
*1244 input26
*1245 input27
*1246 input28
*1247 input29
*1248 input30
*1249 input31
*1250 input32
*1251 input33
*1252 input34
*1253 input35
*1254 output36
*1255 output37
*1256 output38
*1257 output39
*1258 output40
*1259 output41
*1260 output42
*1261 output43
*1262 output44
*1263 output45
*1264 output46
*1265 output47
*1266 output48
*1267 output49
*1268 output50
*1269 output51
*1270 output52
*1271 output53
*1272 clkbuf_0_clk
*1273 clkbuf_2_0__f_clk
*1274 clkbuf_2_1__f_clk
*1275 clkbuf_2_2__f_clk
*1276 clkbuf_2_3__f_clk
*1277 clkload0
*1278 clkload1
*1279 clkload2
*1280 rebuffer1
*1281 rebuffer2
*1282 rebuffer3
*1283 rebuffer4
*1284 rebuffer5
*1285 rebuffer25
*1286 rebuffer26
*1287 rebuffer27
*1288 rebuffer28
*1289 rebuffer52
*1290 rebuffer53
*1291 rebuffer54
*1292 rebuffer55
*1293 rebuffer82
*1294 rebuffer83
*1295 rebuffer84
*1296 rebuffer85
*1297 rebuffer86
*1298 rebuffer95
*1299 rebuffer96
*1300 rebuffer97
*1301 rebuffer100
*1302 rebuffer6
*1303 rebuffer7
*1304 rebuffer8
*1305 rebuffer9
*1306 rebuffer10
*1307 rebuffer11
*1308 rebuffer15
*1309 rebuffer16
*1310 rebuffer21
*1311 rebuffer22
*1312 rebuffer23
*1313 rebuffer24
*1314 rebuffer29
*1315 FILLER_0_1
*1316 FILLER_0_17
*1317 FILLER_0_58
*1318 FILLER_0_63
*1319 FILLER_0_123
*1320 FILLER_0_167
*1321 FILLER_1_1
*1322 FILLER_1_33
*1323 FILLER_1_96
*1324 FILLER_1_128
*1325 FILLER_1_145
*1326 FILLER_1_152
*1327 FILLER_2_1
*1328 FILLER_2_17
*1329 FILLER_2_63
*1330 FILLER_2_99
*1331 FILLER_2_160
*1332 FILLER_3_1
*1333 FILLER_3_17
*1334 FILLER_3_25
*1335 FILLER_3_39
*1336 FILLER_4_4
*1337 FILLER_4_6
*1338 FILLER_4_28
*1339 FILLER_4_50
*1340 FILLER_5_1
*1341 FILLER_5_3
*1342 FILLER_5_7
*1343 FILLER_5_11
*1344 FILLER_5_21
*1345 FILLER_5_36
*1346 FILLER_5_40
*1347 FILLER_5_53
*1348 FILLER_5_86
*1349 FILLER_6_21
*1350 FILLER_6_74
*1351 FILLER_6_83
*1352 FILLER_6_120
*1353 FILLER_6_155
*1354 FILLER_7_1
*1355 FILLER_7_9
*1356 FILLER_7_13
*1357 FILLER_7_18
*1358 FILLER_7_26
*1359 FILLER_7_36
*1360 FILLER_7_47
*1361 FILLER_7_55
*1362 FILLER_7_69
*1363 FILLER_7_170
*1364 FILLER_8_10
*1365 FILLER_8_36
*1366 FILLER_8_40
*1367 FILLER_8_56
*1368 FILLER_8_59
*1369 FILLER_8_71
*1370 FILLER_8_75
*1371 FILLER_8_79
*1372 FILLER_8_98
*1373 FILLER_8_118
*1374 FILLER_9_24
*1375 FILLER_9_34
*1376 FILLER_9_41
*1377 FILLER_9_63
*1378 FILLER_9_147
*1379 FILLER_9_170
*1380 FILLER_10_1
*1381 FILLER_10_3
*1382 FILLER_10_20
*1383 FILLER_10_22
*1384 FILLER_10_32
*1385 FILLER_10_36
*1386 FILLER_10_46
*1387 FILLER_10_48
*1388 FILLER_10_54
*1389 FILLER_10_62
*1390 FILLER_11_1
*1391 FILLER_11_34
*1392 FILLER_11_42
*1393 FILLER_11_44
*1394 FILLER_11_62
*1395 FILLER_11_68
*1396 FILLER_11_76
*1397 FILLER_11_100
*1398 FILLER_12_1
*1399 FILLER_12_36
*1400 FILLER_12_55
*1401 FILLER_12_82
*1402 FILLER_13_1
*1403 FILLER_13_9
*1404 FILLER_13_63
*1405 FILLER_13_92
*1406 FILLER_13_153
*1407 FILLER_14_1
*1408 FILLER_14_5
*1409 FILLER_14_9
*1410 FILLER_14_20
*1411 FILLER_14_36
*1412 FILLER_14_49
*1413 FILLER_14_76
*1414 FILLER_14_111
*1415 FILLER_14_148
*1416 FILLER_14_153
*1417 FILLER_15_1
*1418 FILLER_15_17
*1419 FILLER_15_19
*1420 FILLER_15_44
*1421 FILLER_15_50
*1422 FILLER_15_63
*1423 FILLER_15_162
*1424 FILLER_15_169
*1425 FILLER_16_1
*1426 FILLER_16_9
*1427 FILLER_16_16
*1428 FILLER_16_24
*1429 FILLER_16_70
*1430 FILLER_17_1
*1431 FILLER_17_6
*1432 FILLER_17_14
*1433 FILLER_17_16
*1434 FILLER_17_20
*1435 FILLER_17_51
*1436 FILLER_17_65
*1437 FILLER_17_73
*1438 FILLER_17_90
*1439 FILLER_17_117
*1440 FILLER_17_157
*1441 FILLER_17_165
*1442 FILLER_17_169
*1443 FILLER_18_1
*1444 FILLER_18_5
*1445 FILLER_18_7
*1446 FILLER_18_28
*1447 FILLER_18_48
*1448 FILLER_18_149
*1449 FILLER_18_155
*1450 FILLER_19_1
*1451 FILLER_19_9
*1452 FILLER_19_11
*1453 FILLER_19_60
*1454 FILLER_19_64
*1455 FILLER_19_75
*1456 FILLER_19_79
*1457 FILLER_19_86
*1458 FILLER_19_105
*1459 FILLER_19_134
*1460 FILLER_19_150
*1461 FILLER_19_166
*1462 FILLER_19_170
*1463 FILLER_20_1
*1464 FILLER_20_9
*1465 FILLER_20_13
*1466 FILLER_20_17
*1467 FILLER_20_56
*1468 FILLER_20_64
*1469 FILLER_20_75
*1470 FILLER_20_90
*1471 FILLER_20_94
*1472 FILLER_20_111
*1473 FILLER_20_141
*1474 FILLER_20_157
*1475 FILLER_20_165
*1476 FILLER_20_169
*1477 FILLER_21_1
*1478 FILLER_21_17
*1479 FILLER_21_21
*1480 FILLER_21_23
*1481 FILLER_21_44
*1482 FILLER_21_62
*1483 FILLER_21_80
*1484 FILLER_21_85
*1485 FILLER_21_128
*1486 FILLER_21_142
*1487 FILLER_21_158
*1488 FILLER_21_166
*1489 FILLER_21_170
*1490 FILLER_22_1
*1491 FILLER_22_17
*1492 FILLER_22_21
*1493 FILLER_22_23
*1494 FILLER_22_27
*1495 FILLER_22_35
*1496 FILLER_22_39
*1497 FILLER_22_47
*1498 FILLER_22_53
*1499 FILLER_22_63
*1500 FILLER_22_67
*1501 FILLER_22_85
*1502 FILLER_22_90
*1503 FILLER_22_97
*1504 FILLER_22_99
*1505 FILLER_22_106
*1506 FILLER_22_110
*1507 FILLER_22_116
*1508 FILLER_22_127
*1509 FILLER_22_159
*1510 FILLER_22_167

*PORTS
clk I
req_msg[0] I
req_msg[10] I
req_msg[11] I
req_msg[12] I
req_msg[13] I
req_msg[14] I
req_msg[15] I
req_msg[16] I
req_msg[17] I
req_msg[18] I
req_msg[19] I
req_msg[1] I
req_msg[20] I
req_msg[21] I
req_msg[22] I
req_msg[23] I
req_msg[24] I
req_msg[25] I
req_msg[26] I
req_msg[27] I
req_msg[28] I
req_msg[29] I
req_msg[2] I
req_msg[30] I
req_msg[31] I
req_msg[3] I
req_msg[4] I
req_msg[5] I
req_msg[6] I
req_msg[7] I
req_msg[8] I
req_msg[9] I
req_rdy O
req_val I
reset I
resp_msg[0] O
resp_msg[10] O
resp_msg[11] O
resp_msg[12] O
resp_msg[13] O
resp_msg[14] O
resp_msg[15] O
resp_msg[1] O
resp_msg[2] O
resp_msg[3] O
resp_msg[4] O
resp_msg[5] O
resp_msg[6] O
resp_msg[7] O
resp_msg[8] O
resp_msg[9] O
resp_rdy I
resp_val O

*D_NET *1 0.000224285
*CONN
*I *1138:D I *D DFF_X1
*I *705:ZN O *D OAI21_X1
*CAP
1 *1138:D 7.41023e-05
2 *705:ZN 7.41023e-05
3 *1138:D *704:A 8.88497e-06
4 *1138:D *1139:CK 1.72786e-05
5 *1138:D *68:67 9.5257e-06
6 *1138:D *68:82 6.05873e-06
7 *1138:D *187:52 2.85932e-05
8 *1138:D *574:8 5.73913e-06
*RES
1 *705:ZN *1138:D 29.6786 
*END

*D_NET *2 0.000391954
*CONN
*I *1139:D I *D DFF_X1
*I *708:ZN O *D OAI21_X1
*CAP
1 *1139:D 0.000143888
2 *708:ZN 0.000143888
3 *1139:D *698:A1 7.00661e-06
4 *1139:D *701:B2 1.37673e-05
5 *1139:D *708:B1 2.29822e-06
6 *1139:D *708:B2 6.99525e-06
7 *1139:D *1139:CK 2.75346e-06
8 *1139:D *1140:D 4.62385e-05
9 *1139:D *1254:A 2.51189e-05
*RES
1 *708:ZN *1139:D 37.7857 
*END

*D_NET *3 0.000277004
*CONN
*I *1140:D I *D DFF_X1
*I *698:ZN O *D OAI22_X1
*CAP
1 *1140:D 9.01278e-05
2 *698:ZN 9.01278e-05
3 *1140:D *697:A2 2.16072e-07
4 *1140:D *1140:CK 6.38328e-07
5 *1140:D *1254:A 4.23053e-05
6 *1140:D *187:52 7.34989e-06
7 *1139:D *1140:D 4.62385e-05
*RES
1 *698:ZN *1140:D 32.1071 
*END

*D_NET *4 0.000401473
*CONN
*I *819:A2 I *D NAND2_X2
*I *699:A I *D BUF_X4
*I *1138:QN O *D DFF_X1
*CAP
1 *819:A2 6.51361e-05
2 *699:A 0
3 *1138:QN 8.61647e-05
4 *4:8 0.000151301
5 *819:A2 *1069:A1 3.19164e-06
6 *819:A2 *1071:A2 1.21563e-05
7 *819:A2 *1156:D 1.36877e-05
8 *819:A2 *186:10 3.144e-06
9 *819:A2 *404:68 5.49007e-05
10 *4:8 *700:A3 0
11 *4:8 *1156:D 1.0164e-05
12 *4:8 *65:10 0
13 *4:8 *68:67 0
14 *4:8 *186:10 1.62708e-06
*RES
1 *1138:QN *4:8 19.75 
2 *4:8 *699:A 10 
3 *4:8 *819:A2 18.8929 
*END

*D_NET *5 0.000245659
*CONN
*I *1141:D I *D DFF_X1
*I *831:ZN O *D NAND2_X1
*CAP
1 *1141:D 0.00012283
2 *831:ZN 0.00012283
3 *1141:D *831:A2 0
4 *1141:D *1141:CK 0
*RES
1 *831:ZN *1141:D 31.4643 
*END

*D_NET *6 0.000153105
*CONN
*I *1142:D I *D DFF_X1
*I *853:ZN O *D NAND2_X1
*CAP
1 *1142:D 5.30891e-05
2 *853:ZN 5.30891e-05
3 *1142:D *853:A1 0
4 *1142:D *1078:A2 2.64615e-05
5 *1142:D *1220:A 1.40196e-05
6 *1142:D *68:82 6.44574e-06
*RES
1 *853:ZN *1142:D 26.8929 
*END

*D_NET *7 0.000254989
*CONN
*I *1143:D I *D DFF_X1
*I *902:ZN O *D NAND2_X1
*CAP
1 *1143:D 8.20889e-05
2 *902:ZN 8.20889e-05
3 *1143:D *758:A 7.66675e-07
4 *1143:D *901:A 1.27141e-05
5 *1143:D *902:A1 1.73479e-05
6 *1143:D *990:B1 3.28147e-06
7 *1143:D *1092:A2 1.89711e-05
8 *1143:D *1143:CK 2.44951e-05
9 *1143:D *187:107 0
10 *1143:D *579:16 1.32348e-05
*RES
1 *902:ZN *1143:D 30.8571 
*END

*D_NET *8 0.000157945
*CONN
*I *1144:D I *D DFF_X1
*I *922:ZN O *D NAND2_X1
*CAP
1 *1144:D 5.32986e-05
2 *922:ZN 5.32986e-05
3 *1144:D *920:A2 1.16091e-05
4 *1144:D *921:A 4.80515e-06
5 *1144:D *922:A1 4.69891e-06
6 *1144:D *922:A2 3.02351e-05
*RES
1 *922:ZN *1144:D 26.2143 
*END

*D_NET *9 0.000249668
*CONN
*I *1145:D I *D DFF_X1
*I *950:ZN O *D NAND2_X1
*CAP
1 *1145:D 6.79994e-05
2 *950:ZN 6.79994e-05
3 *1145:D *948:A2 0
4 *1145:D *949:A 6.88146e-06
5 *1145:D *950:A1 3.37275e-05
6 *1145:D *1145:CK 5.46453e-05
7 *1145:D *68:135 7.19036e-06
8 *1145:D *68:139 3.49641e-06
9 *1145:D *598:18 7.72792e-06
*RES
1 *950:ZN *1145:D 28.8214 
*END

*D_NET *10 0.000144873
*CONN
*I *1146:D I *D DFF_X1
*I *971:ZN O *D NAND2_X1
*CAP
1 *1146:D 5.51886e-05
2 *971:ZN 5.51886e-05
3 *1146:D *922:A1 2.58844e-05
4 *1146:D *1240:A 0
5 *1146:D *187:67 8.61125e-06
*RES
1 *971:ZN *1146:D 16.7857 
*END

*D_NET *11 0.00020698
*CONN
*I *1147:D I *D DFF_X2
*I *991:ZN O *D NAND2_X1
*CAP
1 *1147:D 7.75003e-05
2 *991:ZN 7.75003e-05
3 *1147:D *989:A2 2.0188e-05
4 *1147:D *991:A1 1.22974e-05
5 *1147:D *1100:A 7.19036e-06
6 *1147:D *1100:B 7.93489e-06
7 *1147:D *1257:A 1.52083e-06
8 *1147:D *496:10 2.84765e-06
*RES
1 *991:ZN *1147:D 29.1786 
*END

*D_NET *12 0.000508525
*CONN
*I *1148:D I *D DFF_X1
*I *999:ZN O *D NAND2_X1
*CAP
1 *1148:D 0.000111724
2 *999:ZN 0.000111724
3 *1148:D *829:A1 0
4 *1148:D *830:B1 5.90145e-05
5 *1148:D *998:B2 8.18599e-06
6 *1148:D *1148:CK 5.96873e-05
7 *1148:D *1227:A 0
8 *1148:D *68:33 1.33704e-05
9 *1148:D *631:52 0.000144818
*RES
1 *999:ZN *1148:D 36.8929 
*END

*D_NET *13 0.000810378
*CONN
*I *1149:D I *D DFF_X1
*I *1006:ZN O *D NAND2_X1
*CAP
1 *1149:D 0
2 *1006:ZN 0.000255222
3 *13:16 0.000255222
4 *13:16 *684:A4 1.0929e-05
5 *13:16 *859:A2 0
6 *13:16 *996:A1 0
7 *13:16 *1077:B1 2.13186e-05
8 *13:16 *1105:A 0
9 *13:16 *1105:B1 0
10 *13:16 *1289:A 3.54439e-05
11 *13:16 *49:42 9.79614e-06
12 *13:16 *73:12 3.54462e-05
13 *13:16 *74:10 6.603e-05
14 *13:16 *497:34 1.55619e-05
15 *13:16 *497:45 2.34871e-05
16 *13:16 *498:23 8.12821e-05
17 *13:16 *631:26 6.38328e-07
*RES
1 *1006:ZN *13:16 45.5357 
2 *13:16 *1149:D 5 
*END

*D_NET *14 0.000325478
*CONN
*I *1150:D I *D DFF_X1
*I *1013:ZN O *D NAND2_X1
*CAP
1 *1150:D 6.20247e-05
2 *1013:ZN 6.20247e-05
3 *1150:D resp_msg[2] 1.62377e-05
4 *1150:D *721:A1 4.90781e-05
5 *1150:D *722:A1 3.89107e-05
6 *1150:D *1013:A2 4.01505e-06
7 *1150:D *1113:B2 9.24246e-06
8 *1150:D *114:14 8.39449e-05
*RES
1 *1013:ZN *1150:D 30.5357 
*END

*D_NET *15 0.000959831
*CONN
*I *1151:D I *D DFF_X1
*I *1020:ZN O *D NAND2_X1
*CAP
1 *1151:D 0.000172308
2 *1020:ZN 0.000172308
3 *1151:D *869:A2 1.37688e-05
4 *1151:D *870:A1 1.3688e-06
5 *1151:D *1017:A2 1.27666e-06
6 *1151:D *1020:A1 4.19366e-05
7 *1151:D *1020:A2 5.24155e-05
8 *1151:D *1021:A1 8.43429e-06
9 *1151:D *1021:A2 2.11009e-05
10 *1151:D *1117:B2 4.72384e-06
11 *1151:D *1266:A 8.88915e-06
12 *1151:D *55:20 2.04128e-06
13 *1151:D *101:14 9.57492e-07
14 *1151:D *106:10 1.91498e-06
15 *1151:D *362:28 1.48706e-05
16 *1151:D *418:95 0.000210905
17 *1151:D *590:24 1.91498e-06
18 *1151:D *632:10 3.55267e-05
19 *1151:D *632:34 0.000193169
*RES
1 *1020:ZN *1151:D 46.75 
*END

*D_NET *16 0.00277363
*CONN
*I *1152:D I *D DFF_X1
*I *1030:ZN O *D NAND2_X1
*CAP
1 *1152:D 0.000175132
2 *1030:ZN 0.000204699
3 *16:22 0.000379831
4 *1152:D *1026:A 1.93312e-06
5 *1152:D *1036:A 4.94891e-06
6 *1152:D *1123:A 2.33248e-06
7 *1152:D *1124:A2 2.85655e-06
8 *1152:D *1129:B2 6.25834e-06
9 *1152:D *1152:CK 1.69426e-06
10 *1152:D *53:24 7.40328e-06
11 *1152:D *53:34 6.27636e-05
12 *1152:D *111:20 0.00030116
13 *1152:D *404:130 0.000235039
14 *1152:D *404:134 6.3284e-05
15 *1152:D *632:73 4.32144e-07
16 *16:22 *883:A2 6.35405e-05
17 *16:22 *884:A 3.24764e-06
18 *16:22 *1030:A2 9.07002e-05
19 *16:22 *1126:A2 7.99115e-05
20 *16:22 *1247:A 1.17439e-06
21 *16:22 *186:124 0
22 *16:22 *415:73 0.000521256
23 *16:22 *445:20 0.000461066
24 *16:22 *504:45 7.81287e-06
25 *16:22 *550:21 1.20669e-06
26 *16:22 *569:43 3.92678e-05
27 *16:22 *625:22 5.46825e-05
*RES
1 *1030:ZN *16:22 47.5057 
2 *16:22 *1152:D 32.7157 
*END

*D_NET *17 0.00162073
*CONN
*I *1153:D I *D DFF_X1
*I *1037:ZN O *D NAND2_X1
*CAP
1 *1153:D 0
2 *1037:ZN 0.000281588
3 *17:18 0.000281588
4 *17:18 resp_msg[5] 2.54007e-05
5 *17:18 *1045:A 6.79073e-06
6 *17:18 *1054:B1 0.000115347
7 *17:18 *1234:A 1.21045e-05
8 *17:18 *34:18 0.00020177
9 *17:18 *63:140 1.66711e-05
10 *17:18 *96:24 0.000314503
11 *17:18 *189:46 9.2722e-06
12 *17:18 *189:65 5.27887e-06
13 *17:18 *366:24 0.000211326
14 *17:18 *371:18 2.65513e-05
15 *17:18 *418:55 1.60932e-06
16 *17:18 *551:15 0.000110933
*RES
1 *1037:ZN *17:18 47.18 
2 *17:18 *1153:D 5 
*END

*D_NET *18 0.00128527
*CONN
*I *1154:D I *D DFF_X1
*I *1046:ZN O *D NAND2_X1
*CAP
1 *1154:D 0
2 *1046:ZN 0.00039787
3 *18:18 0.00039787
4 *18:18 resp_msg[9] 7.1153e-07
5 *18:18 *1046:A2 1.06642e-05
6 *18:18 *1054:B1 3.53469e-05
7 *18:18 *1055:A1 0.000103969
8 *18:18 *1130:A2 2.3275e-05
9 *18:18 *93:10 4.86768e-05
10 *18:18 *503:14 0.000143153
11 *18:18 *625:22 6.05562e-06