*SPEF "ieee 1481-1999"
*DESIGN "gcd"
*DATE "15:02:54 Friday March 28, 2025"
*VENDOR "The OpenROAD Project"
*PROGRAM "OpenROAD"
*VERSION "v2.0-17941-g7fb347f37"
*DESIGN_FLOW "NAME_SCOPE LOCAL" "PIN_CAP NONE"
*DIVIDER /
*DELIMITER :
*BUS_DELIMITER []
*T_UNIT 1 NS
*C_UNIT 1 PF
*R_UNIT 1 OHM
*L_UNIT 1 HENRY

*NAME_MAP
*1 _000_
*2 _001_
*3 _002_
*4 _003_
*5 _004_
*6 _005_
*7 _006_
*8 _007_
*9 _008_
*10 _009_
*11 _010_
*12 _011_
*13 _012_
*14 _013_
*15 _014_
*16 _015_
*17 _016_
*18 _017_
*19 _018_
*20 _019_
*21 _020_
*22 _021_
*23 _022_
*24 _023_
*25 _024_
*26 _025_
*27 _026_
*28 _027_
*29 _028_
*30 _029_
*31 _030_
*32 _031_
*33 _032_
*34 _033_
*35 _034_
*36 _035_
*37 _036_
*38 _037_
*39 _038_
*40 _039_
*41 _040_
*42 _041_
*43 _042_
*44 _043_
*45 _044_
*46 _045_
*47 _046_
*48 _047_
*49 _048_
*50 _049_
*51 _050_
*52 _051_
*53 _052_
*54 _053_
*55 _054_
*56 _055_
*57 _056_
*58 _057_
*59 _058_
*60 _059_
*61 _060_
*62 _061_
*63 _062_
*64 _063_
*65 _064_
*66 _065_
*67 _066_
*68 _067_
*69 _068_
*70 _069_
*71 _070_
*72 net133
*73 _072_
*74 _073_
*75 _074_
*76 _075_
*77 _076_
*78 _077_
*79 _078_
*80 _079_
*81 _080_
*82 _081_
*83 _082_
*84 _083_
*85 _084_
*86 _085_
*87 _086_
*88 _087_
*89 _088_
*90 _089_
*91 _090_
*92 _091_
*93 _092_
*94 _093_
*95 _094_
*96 _095_
*97 _096_
*98 _097_
*99 _098_
*100 _099_
*101 _100_
*102 _101_
*103 _102_
*104 _103_
*105 _104_
*106 _105_
*107 _106_
*108 _107_
*109 _108_
*110 _109_
*111 _110_
*112 _111_
*113 _112_
*114 _113_
*115 _114_
*116 _115_
*117 _116_
*118 _117_
*119 _118_
*120 _119_
*121 _120_
*122 _121_
*123 _122_
*124 _123_
*125 _124_
*126 _125_
*127 _126_
*128 _127_
*129 _128_
*130 _129_
*131 _130_
*132 _131_
*133 _132_
*134 _133_
*135 _134_
*136 _135_
*137 _136_
*138 _137_
*139 _138_
*140 _139_
*141 _140_
*142 _141_
*143 _142_
*144 _143_
*145 _144_
*146 _145_
*147 _146_
*148 _147_
*149 _148_
*150 _149_
*151 _150_
*152 _151_
*153 _152_
*154 _153_
*155 _154_
*156 _155_
*157 _156_
*158 _157_
*159 _158_
*160 _159_
*161 _160_
*162 _161_
*163 _162_
*164 _163_
*165 _164_
*166 _165_
*167 _166_
*168 _167_
*169 _168_
*170 _169_
*171 _170_
*172 _171_
*173 _172_
*174 _173_
*175 _174_
*176 _175_
*177 _176_
*178 _177_
*179 _178_
*180 _179_
*181 _180_
*182 _181_
*183 _182_
*184 _183_
*185 _184_
*186 _185_
*187 _186_
*188 _187_
*189 _188_
*190 _189_
*191 _190_
*192 _191_
*193 _192_
*194 _193_
*195 _194_
*196 _195_
*197 _196_
*198 _197_
*199 _198_
*200 _199_
*201 _200_
*202 _201_
*203 _202_
*204 _203_
*205 _204_
*206 _205_
*207 _206_
*208 _207_
*209 _208_
*210 _209_
*211 _210_
*212 _211_
*213 _212_
*214 _213_
*215 _214_
*216 _215_
*217 _216_
*218 _217_
*219 _218_
*220 _219_
*221 _220_
*222 _221_
*223 _222_
*224 _223_
*225 _224_
*226 _225_
*227 _226_
*228 _227_
*229 _228_
*230 _229_
*231 _230_
*232 _231_
*233 _232_
*234 _233_
*235 _234_
*236 _235_
*237 _236_
*238 _237_
*239 _238_
*240 _239_
*241 _240_
*242 _241_
*243 _242_
*244 _243_
*245 _244_
*246 _245_
*247 _246_
*248 _247_
*249 _248_
*250 _249_
*251 _250_
*252 _251_
*253 _252_
*254 _253_
*255 _254_
*256 _255_
*257 _256_
*258 _257_
*259 _258_
*260 _259_
*261 _260_
*262 _261_
*263 _262_
*264 _263_
*265 _264_
*266 _265_
*267 _266_
*268 _267_
*269 _268_
*270 _269_
*271 _270_
*272 _271_
*273 _272_
*274 _273_
*275 _274_
*276 _275_
*277 _276_
*278 _277_
*279 _278_
*280 _279_
*281 _280_
*282 _281_
*283 _282_
*284 _283_
*285 _284_
*286 _285_
*287 _286_
*288 _287_
*289 _288_
*290 _289_
*291 _290_
*292 _291_
*293 _292_
*294 _293_
*295 _294_
*296 _295_
*297 _296_
*298 _297_
*299 _298_
*300 _299_
*301 _300_
*302 _301_
*303 _302_
*304 _303_
*305 _304_
*306 _305_
*307 _306_
*308 _307_
*309 _308_
*310 _309_
*311 _310_
*312 _311_
*313 _312_
*314 _313_
*315 _314_
*316 _315_
*317 _316_
*318 _317_
*319 _318_
*320 _319_
*321 _320_
*322 _321_
*323 _322_
*324 _323_
*325 _324_
*326 _325_
*327 _326_
*328 _327_
*329 _328_
*330 _329_
*331 _330_
*332 _331_
*333 _332_
*334 _333_
*335 _334_
*336 _335_
*337 _336_
*338 _337_
*339 _338_
*340 _339_
*341 _340_
*342 _341_
*343 _342_
*344 _343_
*345 _344_
*346 _345_
*347 _346_
*348 _347_
*349 _348_
*350 _349_
*351 _350_
*352 _351_
*353 _352_
*354 _353_
*355 _354_
*356 _355_
*357 _356_
*358 _357_
*359 _358_
*360 _359_
*361 _360_
*362 _361_
*363 _362_
*364 _363_
*365 _364_
*366 _365_
*367 _366_
*368 _367_
*369 _368_
*370 _369_
*371 _370_
*372 _371_
*373 _372_
*374 _373_
*375 _374_
*376 _375_
*377 _376_
*378 _377_
*379 _378_
*380 _379_
*381 _380_
*382 _381_
*383 _382_
*384 _383_
*385 _384_
*386 _385_
*387 _386_
*388 _387_
*389 _388_
*390 _389_
*391 _390_
*392 _391_
*393 _392_
*394 _393_
*395 _394_
*396 _395_
*397 _396_
*398 _397_
*399 _398_
*400 _399_
*401 _400_
*402 _401_
*403 _402_
*404 _403_
*405 _404_
*406 _405_
*407 _406_
*408 _407_
*409 _408_
*410 _409_
*411 _410_
*412 _411_
*413 _412_
*414 _413_
*415 _414_
*416 _415_
*417 _416_
*418 _417_
*419 _418_
*420 _419_
*421 _420_
*422 _421_
*423 _422_
*424 _423_
*425 _424_
*426 _425_
*427 _426_
*428 _427_
*429 _428_
*430 _429_
*431 _430_
*432 _431_
*433 _432_
*434 _433_
*435 _434_
*436 _435_
*437 _436_
*438 _437_
*439 _438_
*440 _439_
*441 _440_
*442 _441_
*443 _442_
*444 _443_
*445 _444_
*446 _445_
*447 _446_
*448 _447_
*449 _448_
*450 _449_
*451 _450_
*452 _451_
*453 _452_
*454 _453_
*455 _454_
*456 _455_
*457 _456_
*458 _457_
*459 _458_
*460 _459_
*461 _460_
*462 _461_
*463 _462_
*464 _463_
*465 _464_
*466 _465_
*467 _466_
*468 _467_
*469 _468_
*470 _469_
*471 _470_
*472 _471_
*473 _472_
*474 _473_
*475 _474_
*476 _475_
*477 _476_
*478 _477_
*479 _478_
*480 _479_
*481 _480_
*482 _481_
*483 _482_
*484 _483_
*485 _484_
*486 _485_
*487 clk
*488 ctrl\.state\.out\[1\]
*489 ctrl\.state\.out\[2\]
*490 dpath\.a_lt_b\$in0\[0\]
*491 dpath\.a_lt_b\$in0\[10\]
*492 dpath\.a_lt_b\$in0\[11\]
*493 dpath\.a_lt_b\$in0\[12\]
*494 dpath\.a_lt_b\$in0\[13\]
*495 dpath\.a_lt_b\$in0\[14\]
*496 dpath\.a_lt_b\$in0\[15\]
*497 dpath\.a_lt_b\$in0\[1\]
*498 dpath\.a_lt_b\$in0\[2\]
*499 dpath\.a_lt_b\$in0\[3\]
*500 dpath\.a_lt_b\$in0\[4\]
*501 dpath\.a_lt_b\$in0\[5\]
*502 dpath\.a_lt_b\$in0\[6\]
*503 dpath\.a_lt_b\$in0\[7\]
*504 dpath\.a_lt_b\$in0\[8\]
*505 dpath\.a_lt_b\$in0\[9\]
*506 dpath\.a_lt_b\$in1\[0\]
*507 dpath\.a_lt_b\$in1\[10\]
*508 dpath\.a_lt_b\$in1\[11\]
*509 dpath\.a_lt_b\$in1\[12\]
*510 dpath\.a_lt_b\$in1\[13\]
*511 dpath\.a_lt_b\$in1\[14\]
*512 dpath\.a_lt_b\$in1\[15\]
*513 dpath\.a_lt_b\$in1\[1\]
*514 dpath\.a_lt_b\$in1\[2\]
*515 dpath\.a_lt_b\$in1\[3\]
*516 dpath\.a_lt_b\$in1\[4\]
*517 dpath\.a_lt_b\$in1\[5\]
*518 dpath\.a_lt_b\$in1\[6\]
*519 dpath\.a_lt_b\$in1\[7\]
*520 dpath\.a_lt_b\$in1\[8\]
*521 dpath\.a_lt_b\$in1\[9\]
*522 req_msg[0]
*523 req_msg[10]
*524 req_msg[11]
*525 req_msg[12]
*526 req_msg[13]
*527 req_msg[14]
*528 req_msg[15]
*529 req_msg[16]
*530 req_msg[17]
*531 req_msg[18]
*532 req_msg[19]
*533 req_msg[1]
*534 req_msg[20]
*535 req_msg[21]
*536 req_msg[22]
*537 req_msg[23]
*538 req_msg[24]
*539 req_msg[25]
*540 req_msg[26]
*541 req_msg[27]
*542 req_msg[28]
*543 req_msg[29]
*544 req_msg[2]
*545 req_msg[30]
*546 req_msg[31]
*547 req_msg[3]
*548 req_msg[4]
*549 req_msg[5]
*550 req_msg[6]
*551 req_msg[7]
*552 req_msg[8]
*553 req_msg[9]
*554 net36
*555 req_val
*556 reset
*557 net37
*558 net38
*559 net39
*560 net40
*561 net41
*562 net42
*563 net43
*564 net44
*565 net45
*566 net46
*567 net47
*568 net48
*569 net49
*570 net50
*571 net51
*572 net52
*573 resp_rdy
*574 net53
*577 net1
*578 net2
*579 net3
*580 net4
*581 net5
*582 net6
*583 net7
*584 net8
*585 net9
*586 net10
*587 net11
*588 net12
*589 net13
*590 net14
*591 net15
*592 net16
*593 net17
*594 net18
*595 net19
*596 net20
*597 net21
*598 net22
*599 net23
*600 net24
*601 net25
*602 net26
*603 net27
*604 net28
*605 net29
*606 net30
*607 net31
*608 net32
*609 net33
*610 net34
*611 net35
*612 req_rdy
*613 resp_msg[0]
*614 resp_msg[10]
*615 resp_msg[11]
*616 resp_msg[12]
*617 resp_msg[13]
*618 resp_msg[14]
*619 resp_msg[15]
*620 resp_msg[1]
*621 resp_msg[2]
*622 resp_msg[3]
*623 resp_msg[4]
*624 resp_msg[5]
*625 resp_msg[6]
*626 resp_msg[7]
*627 resp_msg[8]
*628 resp_msg[9]
*629 resp_val
*630 clknet_0_clk
*631 clknet_2_0__leaf_clk
*632 clknet_2_1__leaf_clk
*633 clknet_2_2__leaf_clk
*634 clknet_2_3__leaf_clk
*635 net54
*636 net55
*637 net56
*638 net57
*639 net58
*640 net59
*641 net102
*642 net61
*643 net62
*644 net63
*645 net64
*646 net65
*647 net66
*648 net67
*649 net68
*650 net69
*651 net70
*652 net71
*653 net72
*654 net73
*655 net74
*656 net75
*657 net76
*658 net77
*659 net78
*660 net90
*661 net128
*662 net129
*663 net130
*664 net131
*665 net132
*666 net137
*667 net138
*668 net139
*669 net140
*670 net147
*671 net79
*672 net80
*673 net84
*674 net85
*675 net86
*676 net87
*677 net88
*678 net89
*679 net91
*680 net92
*681 net93
*682 net95
*683 _486_
*684 _487_
*685 _488_
*686 _489_
*687 _490_
*688 _491_
*689 _492_
*690 _493_
*691 _494_
*692 _495_
*693 _496_
*694 _497_
*695 _498_
*696 _499_
*697 _500_
*698 _501_
*699 _502_
*700 _503_
*701 _504_
*702 _505_
*703 _506_
*704 _507_
*705 _508_
*706 _509_
*707 _510_
*708 _511_
*709 _512_
*710 _513_
*711 _514_
*712 _515_
*713 _516_
*714 _517_
*715 _518_
*716 _519_
*717 _520_
*718 _521_
*719 _522_
*720 _523_
*721 _524_
*722 _525_
*723 rebuffer80
*724 _527_
*725 _528_
*726 _529_
*727 _530_
*728 _531_
*729 _532_
*730 _533_
*731 _534_
*732 _535_
*733 _536_
*734 _537_
*735 _538_
*736 _539_
*737 _540_
*738 _541_
*739 _542_
*740 _543_
*741 _544_
*742 _545_
*743 _546_
*744 _547_
*745 _548_
*746 _549_
*747 _550_
*748 _551_
*749 _552_
*750 _553_
*751 _554_
*752 _555_
*753 _556_
*754 _557_
*755 _558_
*756 _559_
*757 _560_
*758 _561_
*759 _562_
*760 _563_
*761 _564_
*762 _565_
*763 _566_
*764 _567_
*765 _568_
*766 _569_
*767 _570_
*768 _571_
*769 _572_
*770 _573_
*771 _574_
*772 _575_
*773 _576_
*774 _577_
*775 _578_
*776 _579_
*777 _580_
*778 _581_
*779 _582_
*780 _583_
*781 _584_
*782 _585_
*783 _586_
*784 _587_
*785 _588_
*786 _589_
*787 _590_
*788 _591_
*789 _592_
*790 _593_
*791 _594_
*792 _595_
*793 _596_
*794 _597_
*795 _598_
*796 _599_
*797 _600_
*798 _601_
*799 _602_
*800 _603_
*801 _604_
*802 _605_
*803 _606_
*804 _607_
*805 _608_
*806 _609_
*807 _610_
*808 _611_
*809 _612_
*810 _613_
*811 _614_
*812 _615_
*813 _616_
*814 _617_
*815 _618_
*816 _619_
*817 _620_
*818 _621_
*819 _622_
*820 _623_
*821 _624_
*822 _625_
*823 _626_
*824 _627_
*825 _628_
*826 _629_
*827 _630_
*828 _631_
*829 _632_
*830 _633_
*831 _634_
*832 _635_
*833 _636_
*834 _637_
*835 _638_
*836 _639_
*837 _640_
*838 _641_
*839 _642_
*840 _643_
*841 _644_
*842 _645_
*843 _646_
*844 _647_
*845 _648_
*846 _649_
*847 _650_
*848 _651_
*849 _652_
*850 _653_
*851 _654_
*852 _655_
*853 _656_
*854 _657_
*855 _658_
*856 _659_
*857 _660_
*858 _661_
*859 _662_
*860 _663_
*861 _664_
*862 _665_
*863 _666_
*864 _667_
*865 _668_
*866 _669_
*867 _670_
*868 _671_
*869 _672_
*870 _673_
*871 _674_
*872 _675_
*873 _676_
*874 _677_
*875 _678_
*876 _679_
*877 _680_
*878 _681_
*879 _682_
*880 _683_
*881 _684_
*882 _685_
*883 _686_
*884 _687_
*885 _688_
*886 _689_
*887 _690_
*888 _691_
*889 _692_
*890 _693_
*891 _694_
*892 _695_
*893 _696_
*894 _697_
*895 _698_
*896 _699_
*897 _700_
*898 _701_
*899 _702_
*900 _703_
*901 _704_
*902 _705_
*903 _706_
*904 _707_
*905 _708_
*906 _709_
*907 _710_
*908 _711_
*909 _712_
*910 _713_
*911 _714_
*912 _715_
*913 _716_
*914 _717_
*915 _718_
*916 _719_
*917 _720_
*918 _721_
*919 _722_
*920 _723_
*921 _724_
*922 _725_
*923 _726_
*924 _727_
*925 _728_
*926 _729_
*927 _730_
*928 _731_
*929 _732_
*930 _733_
*931 _734_
*932 _735_
*933 _736_
*934 _737_
*935 _738_
*936 _739_
*937 _740_
*938 _741_
*939 _742_
*940 _743_
*941 _744_
*942 _745_
*943 _746_
*944 _747_
*945 _748_
*946 _749_
*947 _750_
*948 _751_
*949 _752_
*950 _753_
*951 _754_
*952 _755_
*953 _756_
*954 _757_
*955 _758_
*956 _759_
*957 _760_
*958 _761_
*959 _762_
*960 _763_
*961 _764_
*962 _765_
*963 _766_
*964 _767_
*965 _768_
*966 _769_
*967 _770_
*968 _771_
*969 _772_
*970 _773_
*971 _774_
*972 _775_
*973 _776_
*974 _777_
*975 _778_
*976 _779_
*977 _780_
*978 _781_
*979 _782_
*980 _783_
*981 _784_
*982 _785_
*983 _786_
*984 _787_
*985 _788_
*986 _789_
*987 _790_
*988 _791_
*989 _792_
*990 _793_
*991 _794_
*992 _795_
*993 _796_
*994 _797_
*995 _798_
*996 _799_
*997 _800_
*998 _801_
*999 _802_
*1000 _803_
*1001 _804_
*1002 _805_
*1003 _806_
*1004 _807_
*1005 _808_
*1006 _809_
*1007 _810_
*1008 _811_
*1009 _812_
*1010 _813_
*1011 _814_
*1012 _815_
*1013 _816_
*1014 _817_
*1015 _818_
*1016 _819_
*1017 _820_
*1018 _821_
*1019 _822_
*1020 _823_
*1021 _824_
*1022 _825_
*1023 _826_
*1024 _827_
*1025 _828_
*1026 _829_
*1027 _830_
*1028 _831_
*1029 _832_
*1030 _833_
*1031 _834_
*1032 _835_
*1033 _836_
*1034 _837_
*1035 _838_
*1036 _839_
*1037 _840_
*1038 _841_
*1039 _842_
*1040 _843_
*1041 _844_
*1042 _845_
*1043 _846_
*1044 _847_
*1045 _848_
*1046 _849_
*1047 _850_
*1048 _851_
*1049 _852_
*1050 _853_
*1051 _854_
*1052 _855_
*1053 _856_
*1054 _857_
*1055 _858_
*1056 _859_
*1057 _860_
*1058 _861_
*1059 _862_
*1060 _863_
*1061 _864_
*1062 _865_
*1063 _866_
*1064 _867_
*1065 _868_
*1066 _869_
*1067 _870_
*1068 _871_
*1069 _872_
*1070 _873_
*1071 _874_
*1072 _875_
*1073 _876_
*1074 _877_
*1075 _878_
*1076 _879_
*1077 _880_
*1078 _881_
*1079 _882_
*1080 _883_
*1081 _884_
*1082 _885_
*1083 _886_
*1084 _887_
*1085 _888_
*1086 _889_
*1087 _890_
*1088 _891_
*1089 _892_
*1090 _893_
*1091 _894_
*1092 _895_
*1093 _896_
*1094 _897_
*1095 _898_
*1096 _899_
*1097 _900_
*1098 _901_
*1099 _902_
*1100 _903_
*1101 _904_
*1102 _905_
*1103 _906_
*1104 _907_
*1105 _908_
*1106 _909_
*1107 _910_
*1108 _911_
*1109 _912_
*1110 _913_
*1111 _914_
*1112 _915_
*1113 _916_
*1114 _917_
*1115 _918_
*1116 _919_
*1117 _920_
*1118 _921_
*1119 _922_
*1120 _923_
*1121 _924_
*1122 _925_
*1123 _926_
*1124 _927_
*1125 _928_
*1126 _929_
*1127 _930_
*1128 _931_
*1129 _932_
*1130 _933_
*1131 _934_
*1132 _935_
*1133 _936_
*1134 _937_
*1135 _938_
*1136 _939_
*1137 _940_
*1138 _941_
*1139 _942_
*1140 _943_
*1141 _944_
*1142 _945_
*1143 _946_
*1144 _947_
*1145 _948_
*1146 _949_
*1147 _950_
*1148 _951_
*1149 _952_
*1150 _953_
*1151 ctrl\.state\.out\[0\]\$_DFF_P_
*1152 ctrl\.state\.out\[1\]\$_DFF_P_
*1153 ctrl\.state\.out\[2\]\$_DFF_P_
*1154 dpath\.a_reg\.out\[0\]\$_DFFE_PP_
*1155 dpath\.a_reg\.out\[10\]\$_DFFE_PP_
*1156 dpath\.a_reg\.out\[11\]\$_DFFE_PP_
*1157 dpath\.a_reg\.out\[12\]\$_DFFE_PP_
*1158 dpath\.a_reg\.out\[13\]\$_DFFE_PP_
*1159 dpath\.a_reg\.out\[14\]\$_DFFE_PP_
*1160 dpath\.a_reg\.out\[15\]\$_DFFE_PP_
*1161 dpath\.a_reg\.out\[1\]\$_DFFE_PP_
*1162 dpath\.a_reg\.out\[2\]\$_DFFE_PP_
*1163 dpath\.a_reg\.out\[3\]\$_DFFE_PP_
*1164 dpath\.a_reg\.out\[4\]\$_DFFE_PP_
*1165 dpath\.a_reg\.out\[5\]\$_DFFE_PP_
*1166 dpath\.a_reg\.out\[6\]\$_DFFE_PP_
*1167 dpath\.a_reg\.out\[7\]\$_DFFE_PP_
*1168 dpath\.a_reg\.out\[8\]\$_DFFE_PP_
*1169 dpath\.a_reg\.out\[9\]\$_DFFE_PP_
*1170 dpath\.b_reg\.out\[0\]\$_DFFE_PP_
*1171 dpath\.b_reg\.out\[10\]\$_DFFE_PP_
*1172 dpath\.b_reg\.out\[11\]\$_DFFE_PP_
*1173 dpath\.b_reg\.out\[12\]\$_DFFE_PP_
*1174 dpath\.b_reg\.out\[13\]\$_DFFE_PP_
*1175 dpath\.b_reg\.out\[14\]\$_DFFE_PP_
*1176 dpath\.b_reg\.out\[15\]\$_DFFE_PP_
*1177 dpath\.b_reg\.out\[1\]\$_DFFE_PP_
*1178 dpath\.b_reg\.out\[2\]\$_DFFE_PP_
*1179 dpath\.b_reg\.out\[3\]\$_DFFE_PP_
*1180 dpath\.b_reg\.out\[4\]\$_DFFE_PP_
*1181 dpath\.b_reg\.out\[5\]\$_DFFE_PP_
*1182 dpath\.b_reg\.out\[6\]\$_DFFE_PP_
*1183 dpath\.b_reg\.out\[7\]\$_DFFE_PP_
*1184 dpath\.b_reg\.out\[8\]\$_DFFE_PP_
*1185 dpath\.b_reg\.out\[9\]\$_DFFE_PP_
*1186 PHY_EDGE_ROW_0_Right_0
*1187 PHY_EDGE_ROW_1_Right_1
*1188 PHY_EDGE_ROW_2_Right_2
*1189 PHY_EDGE_ROW_3_Right_3
*1190 PHY_EDGE_ROW_4_Right_4
*1191 PHY_EDGE_ROW_5_Right_5
*1192 PHY_EDGE_ROW_6_Right_6
*1193 PHY_EDGE_ROW_7_Right_7
*1194 PHY_EDGE_ROW_8_Right_8
*1195 PHY_EDGE_ROW_9_Right_9
*1196 PHY_EDGE_ROW_10_Right_10
*1197 PHY_EDGE_ROW_11_Right_11
*1198 PHY_EDGE_ROW_12_Right_12
*1199 PHY_EDGE_ROW_13_Right_13
*1200 PHY_EDGE_ROW_14_Right_14
*1201 PHY_EDGE_ROW_15_Right_15
*1202 PHY_EDGE_ROW_16_Right_16
*1203 PHY_EDGE_ROW_17_Right_17
*1204 PHY_EDGE_ROW_18_Right_18
*1205 PHY_EDGE_ROW_19_Right_19
*1206 PHY_EDGE_ROW_20_Right_20
*1207 PHY_EDGE_ROW_21_Right_21
*1208 PHY_EDGE_ROW_22_Right_22
*1209 PHY_EDGE_ROW_23_Right_23
*1210 PHY_EDGE_ROW_24_Right_24
*1211 PHY_EDGE_ROW_0_Left_25
*1212 PHY_EDGE_ROW_1_Left_26
*1213 PHY_EDGE_ROW_2_Left_27
*1214 PHY_EDGE_ROW_3_Left_28
*1215 PHY_EDGE_ROW_4_Left_29
*1216 PHY_EDGE_ROW_5_Left_30
*1217 PHY_EDGE_ROW_6_Left_31
*1218 PHY_EDGE_ROW_7_Left_32
*1219 PHY_EDGE_ROW_8_Left_33
*1220 PHY_EDGE_ROW_9_Left_34
*1221 PHY_EDGE_ROW_10_Left_35
*1222 PHY_EDGE_ROW_11_Left_36
*1223 PHY_EDGE_ROW_12_Left_37
*1224 PHY_EDGE_ROW_13_Left_38
*1225 PHY_EDGE_ROW_14_Left_39
*1226 PHY_EDGE_ROW_15_Left_40
*1227 PHY_EDGE_ROW_16_Left_41
*1228 PHY_EDGE_ROW_17_Left_42
*1229 PHY_EDGE_ROW_18_Left_43
*1230 PHY_EDGE_ROW_19_Left_44
*1231 PHY_EDGE_ROW_20_Left_45
*1232 PHY_EDGE_ROW_21_Left_46
*1233 PHY_EDGE_ROW_22_Left_47
*1234 PHY_EDGE_ROW_23_Left_48
*1235 PHY_EDGE_ROW_24_Left_49
*1236 input1
*1237 input2
*1238 input3
*1239 input4
*1240 input5
*1241 input6
*1242 input7
*1243 input8
*1244 input9
*1245 input10
*1246 input11
*1247 input12
*1248 input13
*1249 input14
*1250 input15
*1251 input16
*1252 input17
*1253 input18
*1254 input19
*1255 input20
*1256 input21
*1257 input22
*1258 input23
*1259 input24
*1260 input25
*1261 input26
*1262 input27
*1263 input28
*1264 input29
*1265 input30
*1266 input31
*1267 input32
*1268 input33
*1269 input34
*1270 input35
*1271 output36
*1272 output37
*1273 output38
*1274 output39
*1275 output40
*1276 output41
*1277 output42
*1278 output43
*1279 output44
*1280 output45
*1281 output46
*1282 output47
*1283 output48
*1284 output49
*1285 output50
*1286 output51
*1287 output52
*1288 output53
*1289 clkbuf_0_clk
*1290 clkbuf_2_0__f_clk
*1291 clkbuf_2_1__f_clk
*1292 clkbuf_2_2__f_clk
*1293 clkbuf_2_3__f_clk
*1294 clkload0
*1295 clkload1
*1296 clkload2
*1297 rebuffer1
*1298 rebuffer2
*1299 rebuffer3
*1300 rebuffer4
*1301 rebuffer5
*1302 rebuffer6
*1303 rebuffer49
*1304 rebuffer8
*1305 rebuffer9
*1306 rebuffer10
*1307 rebuffer11
*1308 rebuffer12
*1309 rebuffer13
*1310 rebuffer14
*1311 rebuffer15
*1312 rebuffer16
*1313 rebuffer17
*1314 rebuffer18
*1315 rebuffer19
*1316 rebuffer20
*1317 rebuffer21
*1318 rebuffer22
*1319 rebuffer23
*1320 rebuffer24
*1321 rebuffer25
*1322 rebuffer37
*1323 rebuffer75
*1324 rebuffer76
*1325 rebuffer77
*1326 rebuffer78
*1327 rebuffer79
*1328 rebuffer84
*1329 rebuffer85
*1330 rebuffer86
*1331 rebuffer87
*1332 rebuffer94
*1333 rebuffer26
*1334 rebuffer27
*1335 rebuffer31
*1336 rebuffer32
*1337 rebuffer33
*1338 rebuffer34
*1339 rebuffer35
*1340 rebuffer36
*1341 rebuffer38
*1342 rebuffer39
*1343 rebuffer40
*1344 rebuffer42
*1345 FILLER_0_1
*1346 FILLER_0_33
*1347 FILLER_0_41
*1348 FILLER_0_46
*1349 FILLER_0_50
*1350 FILLER_0_55
*1351 FILLER_0_59
*1352 FILLER_0_76
*1353 FILLER_0_80
*1354 FILLER_0_85
*1355 FILLER_0_89
*1356 FILLER_0_97
*1357 FILLER_0_101
*1358 FILLER_0_108
*1359 FILLER_0_110
*1360 FILLER_0_114
*1361 FILLER_0_133
*1362 FILLER_0_165
*1363 FILLER_0_181
*1364 FILLER_0_185
*1365 FILLER_0_187
*1366 FILLER_1_1
*1367 FILLER_1_33
*1368 FILLER_1_35
*1369 FILLER_1_53
*1370 FILLER_1_72
*1371 FILLER_1_119
*1372 FILLER_1_150
*1373 FILLER_1_154
*1374 FILLER_1_159
*1375 FILLER_1_175
*1376 FILLER_1_177
*1377 FILLER_1_187
*1378 FILLER_2_1
*1379 FILLER_2_33
*1380 FILLER_2_37
*1381 FILLER_2_39
*1382 FILLER_2_47
*1383 FILLER_2_52
*1384 FILLER_2_92
*1385 FILLER_2_110
*1386 FILLER_2_116
*1387 FILLER_2_153
*1388 FILLER_2_160
*1389 FILLER_2_167
*1390 FILLER_2_174
*1391 FILLER_2_184
*1392 FILLER_3_1
*1393 FILLER_3_17
*1394 FILLER_3_42
*1395 FILLER_3_51
*1396 FILLER_3_56
*1397 FILLER_3_120
*1398 FILLER_3_164
*1399 FILLER_3_171
*1400 FILLER_4_1
*1401 FILLER_4_17
*1402 FILLER_4_22
*1403 FILLER_4_30
*1404 FILLER_4_35
*1405 FILLER_4_43
*1406 FILLER_4_47
*1407 FILLER_4_69
*1408 FILLER_4_80
*1409 FILLER_4_98
*1410 FILLER_4_108
*1411 FILLER_4_119
*1412 FILLER_4_154
*1413 FILLER_4_173
*1414 FILLER_5_1
*1415 FILLER_5_17
*1416 FILLER_5_25
*1417 FILLER_5_32
*1418 FILLER_5_40
*1419 FILLER_5_51
*1420 FILLER_5_86
*1421 FILLER_5_93
*1422 FILLER_5_129
*1423 FILLER_5_173
*1424 FILLER_5_181
*1425 FILLER_5_186
*1426 FILLER_6_1
*1427 FILLER_6_9
*1428 FILLER_6_16
*1429 FILLER_6_41
*1430 FILLER_6_43
*1431 FILLER_6_51
*1432 FILLER_6_59
*1433 FILLER_6_66
*1434 FILLER_6_70
*1435 FILLER_6_85
*1436 FILLER_6_101
*1437 FILLER_7_1
*1438 FILLER_7_9
*1439 FILLER_7_13
*1440 FILLER_7_25
*1441 FILLER_7_29
*1442 FILLER_7_37
*1443 FILLER_7_41
*1444 FILLER_7_45
*1445 FILLER_7_55
*1446 FILLER_7_61
*1447 FILLER_7_65
*1448 FILLER_7_74
*1449 FILLER_7_80
*1450 FILLER_7_88
*1451 FILLER_7_160
*1452 FILLER_7_182
*1453 FILLER_7_187
*1454 FILLER_8_4
*1455 FILLER_8_12
*1456 FILLER_8_33
*1457 FILLER_8_49
*1458 FILLER_8_67
*1459 FILLER_8_75
*1460 FILLER_8_79
*1461 FILLER_8_107
*1462 FILLER_8_165
*1463 FILLER_8_186
*1464 FILLER_9_10
*1465 FILLER_9_14
*1466 FILLER_9_26
*1467 FILLER_9_50
*1468 FILLER_9_52
*1469 FILLER_9_62
*1470 FILLER_9_84
*1471 FILLER_9_92
*1472 FILLER_9_113
*1473 FILLER_10_5
*1474 FILLER_10_32
*1475 FILLER_10_36
*1476 FILLER_10_52
*1477 FILLER_10_58
*1478 FILLER_10_114
*1479 FILLER_10_169
*1480 FILLER_10_186
*1481 FILLER_11_4
*1482 FILLER_11_12
*1483 FILLER_11_16
*1484 FILLER_11_43
*1485 FILLER_11_47
*1486 FILLER_11_63
*1487 FILLER_11_67
*1488 FILLER_11_90
*1489 FILLER_11_98
*1490 FILLER_11_130
*1491 FILLER_11_187
*1492 FILLER_12_1
*1493 FILLER_12_33
*1494 FILLER_12_49
*1495 FILLER_12_75
*1496 FILLER_12_96
*1497 FILLER_12_102
*1498 FILLER_12_106
*1499 FILLER_12_113
*1500 FILLER_12_153
*1501 FILLER_13_1
*1502 FILLER_13_50
*1503 FILLER_13_52
*1504 FILLER_13_66
*1505 FILLER_13_79
*1506 FILLER_13_90
*1507 FILLER_13_94
*1508 FILLER_13_96
*1509 FILLER_13_115
*1510 FILLER_13_142
*1511 FILLER_13_166
*1512 FILLER_14_1
*1513 FILLER_14_17
*1514 FILLER_14_32
*1515 FILLER_14_40
*1516 FILLER_14_42
*1517 FILLER_14_50
*1518 FILLER_14_77
*1519 FILLER_14_83
*1520 FILLER_14_87
*1521 FILLER_14_91
*1522 FILLER_14_99
*1523 FILLER_14_140
*1524 FILLER_14_156
*1525 FILLER_15_1
*1526 FILLER_15_3
*1527 FILLER_15_34
*1528 FILLER_15_86
*1529 FILLER_15_90
*1530 FILLER_15_119
*1531 FILLER_15_125
*1532 FILLER_15_133
*1533 FILLER_15_155
*1534 FILLER_16_1
*1535 FILLER_16_33
*1536 FILLER_16_37
*1537 FILLER_16_39
*1538 FILLER_16_72
*1539 FILLER_16_77
*1540 FILLER_16_86
*1541 FILLER_16_94
*1542 FILLER_16_98
*1543 FILLER_16_125
*1544 FILLER_16_131
*1545 FILLER_16_139
*1546 FILLER_16_146
*1547 FILLER_17_1
*1548 FILLER_17_33
*1549 FILLER_17_85
*1550 FILLER_17_105
*1551 FILLER_17_110
*1552 FILLER_17_139
*1553 FILLER_17_162
*1554 FILLER_17_170
*1555 FILLER_17_174
*1556 FILLER_17_187
*1557 FILLER_18_1
*1558 FILLER_18_9
*1559 FILLER_18_13
*1560 FILLER_18_18
*1561 FILLER_18_69
*1562 FILLER_18_77
*1563 FILLER_18_83
*1564 FILLER_18_91
*1565 FILLER_18_95
*1566 FILLER_18_97
*1567 FILLER_18_107
*1568 FILLER_18_109
*1569 FILLER_18_128
*1570 FILLER_18_136
*1571 FILLER_18_154
*1572 FILLER_18_170
*1573 FILLER_18_178
*1574 FILLER_18_182
*1575 FILLER_18_186
*1576 FILLER_19_1
*1577 FILLER_19_5
*1578 FILLER_19_10
*1579 FILLER_19_26
*1580 FILLER_19_30
*1581 FILLER_19_40
*1582 FILLER_19_48
*1583 FILLER_19_50
*1584 FILLER_19_54
*1585 FILLER_19_58
*1586 FILLER_19_67
*1587 FILLER_19_69
*1588 FILLER_19_94
*1589 FILLER_19_107
*1590 FILLER_19_109
*1591 FILLER_19_133
*1592 FILLER_19_137
*1593 FILLER_19_149
*1594 FILLER_19_181
*1595 FILLER_19_185
*1596 FILLER_19_187
*1597 FILLER_20_1
*1598 FILLER_20_17
*1599 FILLER_20_21
*1600 FILLER_20_49
*1601 FILLER_20_51
*1602 FILLER_20_88
*1603 FILLER_20_92
*1604 FILLER_20_94
*1605 FILLER_20_101
*1606 FILLER_20_116
*1607 FILLER_20_134
*1608 FILLER_20_150
*1609 FILLER_20_182
*1610 FILLER_20_186
*1611 FILLER_21_1
*1612 FILLER_21_5
*1613 FILLER_21_9
*1614 FILLER_21_25
*1615 FILLER_21_29
*1616 FILLER_21_37
*1617 FILLER_21_45
*1618 FILLER_21_50
*1619 FILLER_21_74
*1620 FILLER_21_86
*1621 FILLER_21_91
*1622 FILLER_21_98
*1623 FILLER_21_106
*1624 FILLER_21_110
*1625 FILLER_21_117
*1626 FILLER_21_122
*1627 FILLER_21_130
*1628 FILLER_21_134
*1629 FILLER_21_137
*1630 FILLER_21_147
*1631 FILLER_21_179
*1632 FILLER_21_187
*1633 FILLER_22_1
*1634 FILLER_22_9
*1635 FILLER_22_13
*1636 FILLER_22_15
*1637 FILLER_22_40
*1638 FILLER_22_56
*1639 FILLER_22_84
*1640 FILLER_22_97
*1641 FILLER_22_103
*1642 FILLER_22_105
*1643 FILLER_22_145
*1644 FILLER_22_177
*1645 FILLER_22_185
*1646 FILLER_22_187
*1647 FILLER_23_1
*1648 FILLER_23_17
*1649 FILLER_23_25
*1650 FILLER_23_29
*1651 FILLER_23_67
*1652 FILLER_23_92
*1653 FILLER_23_117
*1654 FILLER_23_119
*1655 FILLER_23_131
*1656 FILLER_23_163
*1657 FILLER_23_179
*1658 FILLER_23_187
*1659 FILLER_24_1
*1660 FILLER_24_33
*1661 FILLER_24_37
*1662 FILLER_24_41
*1663 FILLER_24_43
*1664 FILLER_24_56
*1665 FILLER_24_60
*1666 FILLER_24_64
*1667 FILLER_24_71
*1668 FILLER_24_79
*1669 FILLER_24_82
*1670 FILLER_24_86
*1671 FILLER_24_91
*1672 FILLER_24_106
*1673 FILLER_24_113
*1674 FILLER_24_124
*1675 FILLER_24_126
*1676 FILLER_24_130
*1677 FILLER_24_162
*1678 FILLER_24_178
*1679 FILLER_24_186

*PORTS
clk I
req_msg[0] I
req_msg[10] I
req_msg[11] I
req_msg[12] I
req_msg[13] I
req_msg[14] I
req_msg[15] I
req_msg[16] I
req_msg[17] I
req_msg[18] I
req_msg[19] I
req_msg[1] I
req_msg[20] I
req_msg[21] I
req_msg[22] I
req_msg[23] I
req_msg[24] I
req_msg[25] I
req_msg[26] I
req_msg[27] I
req_msg[28] I
req_msg[29] I
req_msg[2] I
req_msg[30] I
req_msg[31] I
req_msg[3] I
req_msg[4] I
req_msg[5] I
req_msg[6] I
req_msg[7] I
req_msg[8] I
req_msg[9] I
req_rdy O
req_val I
reset I
resp_msg[0] O
resp_msg[10] O
resp_msg[11] O
resp_msg[12] O
resp_msg[13] O
resp_msg[14] O
resp_msg[15] O
resp_msg[1] O
resp_msg[2] O
resp_msg[3] O
resp_msg[4] O
resp_msg[5] O
resp_msg[6] O
resp_msg[7] O
resp_msg[8] O
resp_msg[9] O
resp_rdy I
resp_val O

*D_NET *1 0.000242868
*CONN
*I *1151:D I *D DFF_X1
*I *718:ZN O *D OAI21_X1
*CAP
1 *1151:D 6.33819e-05
2 *718:ZN 6.33819e-05
3 *1151:D *713:A3 3.49085e-06
4 *1151:D *718:B1 4.16485e-05
5 *1151:D *719:A1 6.70982e-05
6 *1151:D *1152:CK 3.8669e-06
*RES
1 *718:ZN *1151:D 28.3929 
*END

*D_NET *2 0.00036837
*CONN
*I *1152:D I *D DFF_X1
*I *721:ZN O *D OAI21_X1
*CAP
1 *1152:D 6.53905e-05
2 *721:ZN 6.53905e-05
3 *1152:D *706:A1 5.46453e-05
4 *1152:D *706:A2 0
5 *1152:D *710:A1 1.69572e-06
6 *1152:D *711:A2 5.20238e-07
7 *1152:D *574:12 0.000180728
*RES
1 *721:ZN *1152:D 29.75 
*END

*D_NET *3 0.000134675
*CONN
*I *1153:D I *D DFF_X1
*I *711:ZN O *D OAI22_X1
*CAP
1 *1153:D 5.81717e-05
2 *711:ZN 5.81717e-05
3 *1153:D *68:44 1.83315e-05
*RES
1 *711:ZN *1153:D 16.5357 
*END

*D_NET *4 0.000244126
*CONN
*I *832:A2 I *D NAND2_X2
*I *712:A I *D BUF_X4
*I *1151:QN O *D DFF_X1
*CAP
1 *832:A2 6.11091e-05
2 *712:A 0
3 *1151:QN 4.61733e-05
4 *4:8 0.000107282
5 *832:A2 *713:A3 6.17842e-06
6 *832:A2 *58:34 0
7 *832:A2 *65:28 0
8 *4:8 *713:A3 2.33831e-05
*RES
1 *1151:QN *4:8 15.6786 
2 *4:8 *712:A 10 
3 *4:8 *832:A2 15.6786 
*END

*D_NET *5 0.000149715
*CONN
*I *1154:D I *D DFF_X1
*I *844:ZN O *D NAND2_X1
*CAP
1 *1154:D 4.3539e-05
2 *844:ZN 4.3539e-05
3 *1154:D *843:A 1.65484e-05
4 *1154:D *1087:B 2.38139e-06
5 *1154:D *68:36 3.89107e-05
6 *1154:D *631:65 6.38328e-07
7 *1154:D *631:76 4.15825e-06
*RES
1 *844:ZN *1154:D 26.0357 
*END

*D_NET *6 0.000414048
*CONN
*I *1155:D I *D DFF_X1
*I *866:ZN O *D NAND2_X1
*CAP
1 *1155:D 0.000105598
2 *866:ZN 0.000105598
3 *1155:D *864:A1 4.77786e-06
4 *1155:D *865:A 7.09979e-06
5 *1155:D *866:A2 1.59547e-06
6 *1155:D *1091:A2 0
7 *1155:D *1095:A2 0.000146395
8 *1155:D *68:70 4.20264e-05
9 *1155:D *190:20 9.57492e-07
10 *1155:D *491:6 0
*RES
1 *866:ZN *1155:D 35.3214 
*END

*D_NET *7 0.000355487
*CONN
*I *1156:D I *D DFF_X1
*I *915:ZN O *D NAND2_X1
*CAP
1 *1156:D 7.11186e-05
2 *915:ZN 7.11186e-05
3 *1156:D *914:B1 0
4 *1156:D *1155:CK 5.62265e-05
5 *1156:D *68:70 0
6 *1156:D *492:17 2.94455e-05
7 *1156:D *632:16 0.000127578
*RES
1 *915:ZN *1156:D 30.5 
*END

*D_NET *8 0.000220273
*CONN
*I *1157:D I *D DFF_X1
*I *935:ZN O *D NAND2_X1
*CAP
1 *1157:D 8.88535e-05
2 *935:ZN 8.88535e-05
3 *1157:D *933:A2 5.39659e-06
4 *1157:D *934:B2 0
5 *1157:D *935:A2 7.18184e-06
6 *1157:D *493:8 2.99872e-05
*RES
1 *935:ZN *1157:D 29.75 
*END

*D_NET *9 0.000449543
*CONN
*I *1158:D I *D DFF_X1
*I *963:ZN O *D NAND2_X1
*CAP
1 *1158:D 8.32662e-05
2 *963:ZN 8.32662e-05
3 *1158:D *961:A1 0
4 *1158:D *962:B1 4.29819e-05
5 *1158:D *962:B2 0.000172389
6 *1158:D *68:84 6.76399e-05
7 *1158:D *632:61 0
*RES
1 *963:ZN *1158:D 33.2143 
*END

*D_NET *10 0.000134515
*CONN
*I *1159:D I *D DFF_X1
*I *984:ZN O *D NAND2_X1
*CAP
1 *1159:D 2.39099e-05
2 *984:ZN 2.39099e-05
3 *1159:D *984:A2 4.33476e-05
4 *1159:D *320:16 4.33476e-05
*RES
1 *984:ZN *1159:D 14.25 
*END

*D_NET *11 0.000213039
*CONN
*I *1160:D I *D DFF_X2
*I *1004:ZN O *D NAND2_X1
*CAP
1 *1160:D 9.78088e-05
2 *1004:ZN 9.78088e-05
3 *1160:D *983:B2 4.15369e-06
4 *1160:D *1004:A1 1.11168e-06
5 *1160:D *1259:A 6.50827e-06
6 *1160:D *632:61 7.16188e-07
7 *1160:D *632:65 4.93117e-06
*RES
1 *1004:ZN *1160:D 30.2857 
*END

*D_NET *12 0.000254318
*CONN
*I *1161:D I *D DFF_X1
*I *1012:ZN O *D NAND2_X1
*CAP
1 *1161:D 0.000110275
2 *1012:ZN 0.000110275
3 *1161:D *1244:A 0
4 *1161:D *68:36 1.71171e-05
5 *1161:D *631:65 1.66509e-05
*RES
1 *1012:ZN *1161:D 31.8929 
*END

*D_NET *13 0.000107354
*CONN
*I *1162:D I *D DFF_X1
*I *1019:ZN O *D NAND2_X1
*CAP
1 *1162:D 5.0433e-05
2 *1019:ZN 5.0433e-05
3 *1162:D *1018:B2 3.65322e-06
4 *1162:D *1116:B 0
5 *1162:D *190:114 2.83434e-06
*RES
1 *1019:ZN *1162:D 15.1786 
*END

*D_NET *14 9.5003e-05
*CONN
*I *1163:D I *D DFF_X1
*I *1026:ZN O *D NAND2_X1
*CAP
1 *1163:D 4.47367e-05
2 *1026:ZN 4.47367e-05
3 *1163:D *1280:A 5.52959e-06
4 *1163:D *48:8 0
5 *1163:D *81:24 0
6 *1163:D *219:20 0
*RES
1 *1026:ZN *1163:D 14.8929 
*END

*D_NET *15 0.000547614
*CONN
*I *1164:D I *D DFF_X1
*I *1033:ZN O *D NAND2_X1
*CAP
1 *1164:D 0.000111844
2 *1033:ZN 0.000111844
3 *1164:D resp_msg[4] 0
4 *1164:D *885:A 8.43429e-06
5 *1164:D *886:B1 2.52965e-06
6 *1164:D *1032:A 0
7 *1164:D *1179:CK 5.54369e-05
8 *1164:D *633:20 0.000257524
*RES
1 *1033:ZN *1164:D 37.2857 
*END

*D_NET *16 0.00054637
*CONN
*I *1165:D I *D DFF_X1